# generated using pymatgen
data_Al2(MoO4)3
_symmetry_space_group_name_H-M   Pbcn
_cell_length_a   12.49704017
_cell_length_b   9.02124515
_cell_length_c   9.10267236
_cell_angle_alpha   90.00000000
_cell_angle_beta   90.00000000
_cell_angle_gamma   90.00000000
_symmetry_Int_Tables_number   60
_chemical_formula_structural   Al2(MoO4)3
_chemical_formula_sum   'Al8 Mo12 O48'
_cell_volume   1026.22493234
_cell_formula_units_Z   4
loop_
 _symmetry_equiv_pos_site_id
 _symmetry_equiv_pos_as_xyz
  1  'x, y, z'
  2  '-x, -y, -z'
  3  '-x+1/2, -y+1/2, z+1/2'
  4  'x+1/2, y+1/2, -z+1/2'
  5  'x+1/2, -y+1/2, -z'
  6  '-x+1/2, y+1/2, z'
  7  '-x, y, -z+1/2'
  8  'x, -y, z+1/2'
loop_
 _atom_type_symbol
 _atom_type_oxidation_number
  Al3+  3.0
  Mo6+  6.0
  O2-  -2.0
loop_
 _atom_site_type_symbol
 _atom_site_label
 _atom_site_symmetry_multiplicity
 _atom_site_fract_x
 _atom_site_fract_y
 _atom_site_fract_z
 _atom_site_occupancy
  Al3+  Al0  8  0.11990151  0.24998330  0.96436783  1
  Mo6+  Mo1  8  0.14508407  0.10201803  0.61979018  1
  Mo6+  Mo2  4  0.00000000  0.47533263  0.25000000  1
  O2-  O3  8  0.02019079  0.17922116  0.57594584  1
  O2-  O4  8  0.06361424  0.36447436  0.11803100  1
  O2-  O5  8  0.09620160  0.41052393  0.83430609  1
  O2-  O6  8  0.14084162  0.09081912  0.09291936  1
  O2-  O7  8  0.17239277  0.13690505  0.80632747  1
  O2-  O8  8  0.24344029  0.18046742  0.50631437  1
