# generated using pymatgen
data_Al2(WO4)3
_symmetry_space_group_name_H-M   Pbcn
_cell_length_a   12.60838427
_cell_length_b   9.08702110
_cell_length_c   9.16478393
_cell_angle_alpha   90.00000000
_cell_angle_beta   90.00000000
_cell_angle_gamma   90.00000000
_symmetry_Int_Tables_number   60
_chemical_formula_structural   Al2(WO4)3
_chemical_formula_sum   'Al8 W12 O48'
_cell_volume   1050.03361644
_cell_formula_units_Z   4
loop_
 _symmetry_equiv_pos_site_id
 _symmetry_equiv_pos_as_xyz
  1  'x, y, z'
  2  '-x, -y, -z'
  3  '-x+1/2, -y+1/2, z+1/2'
  4  'x+1/2, y+1/2, -z+1/2'
  5  'x+1/2, -y+1/2, -z'
  6  '-x+1/2, y+1/2, z'
  7  '-x, y, -z+1/2'
  8  'x, -y, z+1/2'
loop_
 _atom_type_symbol
 _atom_type_oxidation_number
  Al3+  3.0
  W6+  6.0
  O2-  -2.0
loop_
 _atom_site_type_symbol
 _atom_site_label
 _atom_site_symmetry_multiplicity
 _atom_site_fract_x
 _atom_site_fract_y
 _atom_site_fract_z
 _atom_site_occupancy
  Al3+  Al0  8  0.11954665  0.25030599  0.53495464  1
  W6+  W1  8  0.14499292  0.10237967  0.88057190  1
  W6+  W2  4  0.00000000  0.47599748  0.25000000  1
  O2-  O3  8  0.01942098  0.17843308  0.92657850  1
  O2-  O4  8  0.06438036  0.36691923  0.38393525  1
  O2-  O5  8  0.09810291  0.40913079  0.66606436  1
  O2-  O6  8  0.14210712  0.09139253  0.40861305  1
  O2-  O7  8  0.17007993  0.13544960  0.69184905  1
  O2-  O8  8  0.24423542  0.18413156  0.99229859  1
