# generated using pymatgen
data_Ba2LaNbO6
_symmetry_space_group_name_H-M   C2/m
_cell_length_a   10.62427000
_cell_length_b   6.15119200
_cell_length_c   6.22098520
_cell_angle_alpha   90.00000000
_cell_angle_beta   124.96962003
_cell_angle_gamma   90.00000000
_symmetry_Int_Tables_number   12
_chemical_formula_structural   Ba2LaNbO6
_chemical_formula_sum   'Ba4 La2 Nb2 O12'
_cell_volume   333.15260982
_cell_formula_units_Z   2
loop_
 _symmetry_equiv_pos_site_id
 _symmetry_equiv_pos_as_xyz
  1  'x, y, z'
  2  '-x, -y, -z'
  3  '-x, y, -z'
  4  'x, -y, z'
  5  'x+1/2, y+1/2, z'
  6  '-x+1/2, -y+1/2, -z'
  7  '-x+1/2, y+1/2, -z'
  8  'x+1/2, -y+1/2, z'
loop_
 _atom_type_symbol
 _atom_type_oxidation_number
  Ba2+  2.0
  La3+  3.0
  Nb5+  5.0
  O2-  -2.0
loop_
 _atom_site_type_symbol
 _atom_site_label
 _atom_site_symmetry_multiplicity
 _atom_site_fract_x
 _atom_site_fract_y
 _atom_site_fract_z
 _atom_site_occupancy
  Ba2+  Ba0  4  0.24611200  0.00000000  0.23838700  1
  La3+  La1  2  0.00000000  0.00000000  0.50000000  1
  Nb5+  Nb2  2  0.00000000  0.50000000  0.00000000  1
  O2-  O3  8  0.03849750  0.26746850  0.81160300  1
  O2-  O4  4  0.22789200  0.50000000  0.29683400  1
