# generated using pymatgen
data_Ba2LaTaO6
_symmetry_space_group_name_H-M   P2_1/c
_cell_length_a   6.15036742
_cell_length_b   6.09156740
_cell_length_c   10.53575029
_cell_angle_alpha   90.00000000
_cell_angle_beta   125.19676137
_cell_angle_gamma   90.00000000
_symmetry_Int_Tables_number   14
_chemical_formula_structural   Ba2LaTaO6
_chemical_formula_sum   'Ba4 La2 Ta2 O12'
_cell_volume   322.56108668
_cell_formula_units_Z   2
loop_
 _symmetry_equiv_pos_site_id
 _symmetry_equiv_pos_as_xyz
  1  'x, y, z'
  2  '-x, -y, -z'
  3  '-x, y+1/2, -z+1/2'
  4  'x, -y+1/2, z+1/2'
loop_
 _atom_type_symbol
 _atom_type_oxidation_number
  Ba2+  2.0
  La3+  3.0
  Ta5+  5.0
  O2-  -2.0
loop_
 _atom_site_type_symbol
 _atom_site_label
 _atom_site_symmetry_multiplicity
 _atom_site_fract_x
 _atom_site_fract_y
 _atom_site_fract_z
 _atom_site_occupancy
  Ba2+  Ba0  4  0.25722032  0.50915558  0.75167255  1
  La3+  La1  2  0.00000000  0.00000000  0.50000000  1
  Ta5+  Ta2  2  0.50000000  0.00000000  0.00000000  1
  O2-  O3  4  0.20592448  0.50576887  0.27325863  1
  O2-  O4  4  0.29862297  0.21837293  0.03622623  1
  O2-  O5  4  0.32344358  0.74289501  0.53676864  1
