# generated using pymatgen
data_Ba2MgSi2O7
_symmetry_space_group_name_H-M   P-42_1m
_cell_length_a   8.21514987
_cell_length_b   8.21514987
_cell_length_c   5.42935621
_cell_angle_alpha   90.00000000
_cell_angle_beta   90.00000000
_cell_angle_gamma   90.00000000
_symmetry_Int_Tables_number   113
_chemical_formula_structural   Ba2MgSi2O7
_chemical_formula_sum   'Ba4 Mg2 Si4 O14'
_cell_volume   366.42012397
_cell_formula_units_Z   2
loop_
 _symmetry_equiv_pos_site_id
 _symmetry_equiv_pos_as_xyz
  1  'x, y, z'
  2  'y, -x, -z'
  3  '-x, -y, z'
  4  '-y, x, -z'
  5  'x+1/2, -y+1/2, -z'
  6  'y+1/2, x+1/2, z'
  7  '-x+1/2, y+1/2, -z'
  8  '-y+1/2, -x+1/2, z'
loop_
 _atom_type_symbol
 _atom_type_oxidation_number
  Ba2+  2.0
  Mg2+  2.0
  Si4+  4.0
  O2-  -2.0
loop_
 _atom_site_type_symbol
 _atom_site_label
 _atom_site_symmetry_multiplicity
 _atom_site_fract_x
 _atom_site_fract_y
 _atom_site_fract_z
 _atom_site_occupancy
  Ba2+  Ba0  4  0.16478254  0.33521746  0.48987636  1
  Mg2+  Mg1  2  0.00000000  0.00000000  0.00000000  1
  Si4+  Si2  4  0.13687495  0.63687495  0.95592143  1
  O2-  O3  8  0.07750186  0.80528871  0.82422406  1
  O2-  O4  4  0.14037175  0.64037175  0.25157437  1
  O2-  O5  2  0.00000000  0.50000000  0.86290540  1
