# generated using pymatgen
data_Ba2NdTaO6
_symmetry_space_group_name_H-M   C2/m
_cell_length_a   10.57580400
_cell_length_b   6.11298400
_cell_length_c   6.15762099
_cell_angle_alpha   90.00000000
_cell_angle_beta   125.32509501
_cell_angle_gamma   90.00000000
_symmetry_Int_Tables_number   12
_chemical_formula_structural   Ba2NdTaO6
_chemical_formula_sum   'Ba4 Nd2 Ta2 O12'
_cell_volume   324.79418407
_cell_formula_units_Z   2
loop_
 _symmetry_equiv_pos_site_id
 _symmetry_equiv_pos_as_xyz
  1  'x, y, z'
  2  '-x, -y, -z'
  3  '-x, y, -z'
  4  'x, -y, z'
  5  'x+1/2, y+1/2, z'
  6  '-x+1/2, -y+1/2, -z'
  7  '-x+1/2, y+1/2, -z'
  8  'x+1/2, -y+1/2, z'
loop_
 _atom_type_symbol
 _atom_type_oxidation_number
  Ba2+  2.0
  Nd3+  3.0
  Ta5+  5.0
  O2-  -2.0
loop_
 _atom_site_type_symbol
 _atom_site_label
 _atom_site_symmetry_multiplicity
 _atom_site_fract_x
 _atom_site_fract_y
 _atom_site_fract_z
 _atom_site_occupancy
  Ba2+  Ba0  4  0.24882100  0.00000000  0.74496600  1
  Nd3+  Nd1  2  0.00000000  0.00000000  0.00000000  1
  Ta5+  Ta2  2  0.00000000  0.50000000  0.50000000  1
  O2-  O3  8  0.03142500  0.26776800  0.30277700  1
  O2-  O4  4  0.22966200  0.50000000  0.78905300  1
