#### CIF created by Crystallographica 2 ####

data_BariumLanthanumTitaniumOxide

_audit_creation_method                    'Crystallographica 2' 
_cell_angle_alpha                         90 
_cell_angle_beta                          90 
_cell_angle_gamma                         90 
_cell_formula_units_Z                     2 
_cell_length_a                            22.4123 
_cell_length_b                            12.2777 
_cell_length_c                            7.7526 
_cell_volume                              2133.29 
_cgraph_comments                         'Analysis of the crystal structure and the relation with the 
     temperature coefficient tau-e in Ba O Re2 O3 4(Ti O2) (Re = 
     La. Nd. Y) microwave dielectric ceramics
'
_cgraph_title                            'Barium Lanthanum Titanium Oxide (3.99/8.94/18/54)'
_chemical_formula_sum                    'Ba3.99 La8.94 Ti18 O54'
_symmetry_space_group_name_H-M           'P n a m'
_symmetry_space_group_name_Hall          '-P 2c 2n'

loop_
        _symmetry_equiv_pos_as_xyz
        'x, y, z'
        '-x, -y, -z'
        '-x, -y, z+1/2'
        'x, y, -z+1/2'
        'x+1/2, -y+1/2, -z+1/2'
        '-x+1/2, y+1/2, z+1/2'
        '-x+1/2, y+1/2, -z'
        'x+1/2, -y+1/2, z'

loop_
        _atom_site_label
        _atom_site_type_symbol
        _atom_site_fract_x
        _atom_site_fract_y
        _atom_site_fract_z
        _atom_site_U_iso_or_equiv
        _atom_site_thermal_displace_type
        _atom_site_occupancy
        Ba1 Ba2+ 0.3106 0.0944 0.25 0.00642123 Uiso 1
        Ba2 Ba2+ 0.8042 0.4086 0.75 0.00656055 Uiso 0.97
        La1 La3+ 0.054 0.2058 0.25 0.00663654 Uiso 0.85
        La2 La3+ 0.4538 0.7008 0.25 0.00663654 Uiso 0.906
        La3 La3+ 0.498 0.0009 0.25 0.00663654 Uiso 0.884
        La4 La3+ 0.38 0.4028 0.25 0.00663654 Uiso 0.906
        La5 La3+ 0.6192 0.5907 0.25 0.00663654 Uiso 0.924
        Ti1 Ti4+ 0.5 0.5 0 0.0172246 Uiso 1
        Ti2 Ti4+ 0.4349 0.1984 -0.007 0.0172246 Uiso 1
        Ti3 Ti4+ 0.1105 0.3976 0.0039 0.0172246 Uiso 1
        Ti4 Ti4+ 0.1646 0.1138 0.0116 0.0172246 Uiso 1
        Ti5 Ti4+ 0.262 0.3367 0.0142 0.0172246 Uiso 1
        O1 O2- 0.1656 0.1035 0.25 0.0134631 Uiso 1
        O2 O2- 0.1452 0.0944 0.75 0.0134631 Uiso 1
        O3 O2- 0.1943 0.4199 0.0038 0.0134631 Uiso 1
        O4 O2- 0.2395 0.1839 -0.018 0.0134631 Uiso 1
        O5 O2- 0.2748 0.32 0.25 0.0134631 Uiso 1
        O6 O2- 0.2733 0.3297 0.75 0.0134631 Uiso 1
        O7 O2- 0.0209 0.3646 -0.002 0.0134631 Uiso 1
        O8 O2- 0.4479 0.2182 0.25 0.0134631 Uiso 1
        O9 O2- 0.439 0.1864 0.75 0.0134631 Uiso 1
        O10 O2- 0.1172 0.2432 0.0099 0.0134631 Uiso 1
        O11 O2- 0.486 0.4885 0.25 0.0134631 Uiso 1
        O12 O2- 0.0787 0.0469 0.0316 0.0134631 Uiso 1
        O13 O2- 0.3602 0.2628 -0.006 0.0134631 Uiso 1
        O14 O2- 0.4728 0.347 -0.031 0.0134631 Uiso 1
        O15 O2- 0.4052 0.0508 0.0325 0.0134631 Uiso 1
        O16 O2- 0.3118 0.4656 0.0074 0.0134631 Uiso 1
        O17 O2- 0.1006 0.4135 0.25 0.0134631 Uiso 1
        O18 O2- 0.1031 0.3859 0.75 0.0134631 Uiso 1

_eof

#### End of Crystallographic Information File ####
