# generated using pymatgen
data_Ba3LaTa3O12
_symmetry_space_group_name_H-M   R3m
_cell_length_a   5.81169352
_cell_length_b   5.81169352
_cell_length_c   27.94048650
_cell_angle_alpha   90.00000000
_cell_angle_beta   90.00000000
_cell_angle_gamma   120.00000000
_symmetry_Int_Tables_number   160
_chemical_formula_structural   Ba3LaTa3O12
_chemical_formula_sum   'Ba9 La3 Ta9 O36'
_cell_volume   817.27836457
_cell_formula_units_Z   3
loop_
 _symmetry_equiv_pos_site_id
 _symmetry_equiv_pos_as_xyz
  1  'x, y, z'
  2  '-y, x-y, z'
  3  '-x+y, -x, z'
  4  '-y, -x, z'
  5  '-x+y, y, z'
  6  'x, x-y, z'
  7  'x+2/3, y+1/3, z+1/3'
  8  '-y+2/3, x-y+1/3, z+1/3'
  9  '-x+y+2/3, -x+1/3, z+1/3'
  10  '-y+2/3, -x+1/3, z+1/3'
  11  '-x+y+2/3, y+1/3, z+1/3'
  12  'x+2/3, x-y+1/3, z+1/3'
  13  'x+1/3, y+2/3, z+2/3'
  14  '-y+1/3, x-y+2/3, z+2/3'
  15  '-x+y+1/3, -x+2/3, z+2/3'
  16  '-y+1/3, -x+2/3, z+2/3'
  17  '-x+y+1/3, y+2/3, z+2/3'
  18  'x+1/3, x-y+2/3, z+2/3'
loop_
 _atom_type_symbol
 _atom_type_oxidation_number
  Ba2+  2.0
  La3+  3.0
  Ta5+  5.0
  O2-  -2.0
loop_
 _atom_site_type_symbol
 _atom_site_label
 _atom_site_symmetry_multiplicity
 _atom_site_fract_x
 _atom_site_fract_y
 _atom_site_fract_z
 _atom_site_occupancy
  Ba2+  Ba0  3  0.00000000  0.00000000  0.13314000  1
  Ba2+  Ba1  3  0.00000000  0.00000000  0.28802000  1
  Ba2+  Ba2  3  0.00000000  0.00000000  0.71036300  1
  La3+  La3  3  0.00000000  0.00000000  0.85393800  1
  Ta5+  Ta4  3  0.00000000  0.00000000  0.42338500  1
  Ta5+  Ta5  3  0.00000000  0.00000000  0.57636200  1
  Ta5+  Ta6  3  0.00000000  0.00000000  0.99931500  1
  O2-  O7  9  0.00163000  0.50081500  0.12458000  1
  O2-  O8  9  0.00193333  0.50096667  0.70929767  1
  O2-  O9  9  0.16830333  0.33660667  0.21124567  1
  O2-  O10  9  0.16912833  0.33825667  0.62670267  1
