# generated using pymatgen
data_Ba3La3Ti4NbO18
_symmetry_space_group_name_H-M   R3m
_cell_length_a   5.68411631
_cell_length_b   5.68411631
_cell_length_c   41.37724253
_cell_angle_alpha   90.00000000
_cell_angle_beta   90.00000000
_cell_angle_gamma   120.00000000
_symmetry_Int_Tables_number   160
_chemical_formula_structural   Ba3La3Ti4NbO18
_chemical_formula_sum   'Ba9 La9 Ti12 Nb3 O54'
_cell_volume   1157.75879297
_cell_formula_units_Z   3
loop_
 _symmetry_equiv_pos_site_id
 _symmetry_equiv_pos_as_xyz
  1  'x, y, z'
  2  '-y, x-y, z'
  3  '-x+y, -x, z'
  4  '-y, -x, z'
  5  '-x+y, y, z'
  6  'x, x-y, z'
  7  'x+2/3, y+1/3, z+1/3'
  8  '-y+2/3, x-y+1/3, z+1/3'
  9  '-x+y+2/3, -x+1/3, z+1/3'
  10  '-y+2/3, -x+1/3, z+1/3'
  11  '-x+y+2/3, y+1/3, z+1/3'
  12  'x+2/3, x-y+1/3, z+1/3'
  13  'x+1/3, y+2/3, z+2/3'
  14  '-y+1/3, x-y+2/3, z+2/3'
  15  '-x+y+1/3, -x+2/3, z+2/3'
  16  '-y+1/3, -x+2/3, z+2/3'
  17  '-x+y+1/3, y+2/3, z+2/3'
  18  'x+1/3, x-y+2/3, z+2/3'
loop_
 _atom_type_symbol
 _atom_type_oxidation_number
  Ba2+  2.0
  La3+  3.0
  Ti4+  4.0
  Nb5+  5.0
  O2-  -2.0
loop_
 _atom_site_type_symbol
 _atom_site_label
 _atom_site_symmetry_multiplicity
 _atom_site_fract_x
 _atom_site_fract_y
 _atom_site_fract_z
 _atom_site_occupancy
  Ba2+  Ba0  3  0.00000000  0.00000000  0.41601400  1
  Ba2+  Ba1  3  0.00000000  0.00000000  0.68777000  1
  Ba2+  Ba2  3  0.00000000  0.00000000  0.86189700  1
  La3+  La3  3  0.00000000  0.00000000  0.13922100  1
  La3+  La4  3  0.00000000  0.00000000  0.31514900  1
  La3+  La5  3  0.00000000  0.00000000  0.59035600  1
  Ti4+  Ti6  3  0.00000000  0.00000000  0.22468800  1
  Ti4+  Ti7  3  0.00000000  0.00000000  0.50197200  1
  Ti4+  Ti8  3  0.00000000  0.00000000  0.77813000  1
  Ti4+  Ti9  3  0.00000000  0.00000000  0.94766400  1
  Nb5+  Nb10  3  0.00000000  0.00000000  0.05108300  1
  O2-  O11  9  0.00348600  0.50174300  0.85951100  1
  O2-  O12  9  0.00532000  0.50266000  0.30073800  1
  O2-  O13  9  0.16724667  0.33449333  0.47274733  1
  O2-  O14  9  0.16816733  0.33633467  0.02765167  1
  O2-  O15  9  0.16917767  0.33835533  0.75261033  1
  O2-  O16  9  0.16976400  0.33952800  0.91542800  1
