# generated using pymatgen
data_Ba3Nb2(P2O9)2
_symmetry_space_group_name_H-M   P-1
_cell_length_a   4.97169400
_cell_length_b   9.19303973
_cell_length_c   9.68435108
_cell_angle_alpha   88.41670094
_cell_angle_beta   78.80289887
_cell_angle_gamma   78.37516184
_symmetry_Int_Tables_number   2
_chemical_formula_structural   Ba3Nb2(P2O9)2
_chemical_formula_sum   'Ba3 Nb2 P4 O18'
_cell_volume   425.26101547
_cell_formula_units_Z   1
loop_
 _symmetry_equiv_pos_site_id
 _symmetry_equiv_pos_as_xyz
  1  'x, y, z'
  2  '-x, -y, -z'
loop_
 _atom_type_symbol
 _atom_type_oxidation_number
  Ba2+  2.0
  Nb5+  5.0
  P5+  5.0
  O2-  -2.0
loop_
 _atom_site_type_symbol
 _atom_site_label
 _atom_site_symmetry_multiplicity
 _atom_site_fract_x
 _atom_site_fract_y
 _atom_site_fract_z
 _atom_site_occupancy
  Ba2+  Ba0  2  0.04783000  0.71718900  0.08945800  1
  Ba2+  Ba1  1  0.50000000  0.50000000  0.50000000  1
  Nb5+  Nb2  2  0.25642800  0.89165500  0.72853300  1
  P5+  P3  2  0.19174800  0.36629400  0.21745700  1
  P5+  P4  2  0.30940100  0.86543600  0.35948200  1
  O2-  O5  2  0.01107800  0.49372700  0.31282300  1
  O2-  O6  2  0.02957100  0.92244900  0.30314700  1
  O2-  O7  2  0.03835400  0.23343900  0.21071400  1
  O2-  O8  2  0.24229300  0.80816000  0.51045100  1
  O2-  O9  2  0.26234700  0.93787600  0.90516600  1
  O2-  O10  2  0.27775600  0.41362400  0.06493900  1
  O2-  O11  2  0.44236300  0.00471400  0.36280600  1
  O2-  O12  2  0.45635600  0.30533400  0.28493500  1
  O2-  O13  2  0.49010000  0.74316500  0.25881900  1
