data_20-Ba4.5Nd9Ti18O54
_audit_creation_date              2024-01-09
_audit_creation_method            'Materials Studio'
_symmetry_space_group_name_H-M    'PBNM'
_symmetry_Int_Tables_number       62
_symmetry_cell_setting            orthorhombic
loop_
_symmetry_equiv_pos_as_xyz
  x,y,z
  x+1/2,-y+1/2,-z
  -x,-y,z+1/2
  -x+1/2,y+1/2,-z+1/2
  -x,-y,-z
  -x+1/2,y+1/2,z
  x,y,-z+1/2
  x+1/2,-y+1/2,z+1/2
_cell_length_a                    12.1568
_cell_length_b                    22.3253
_cell_length_c                    7.6630
_cell_angle_alpha                 90.0000
_cell_angle_beta                  90.0000
_cell_angle_gamma                 90.0000
loop_
_atom_site_label
_atom_site_type_symbol
_atom_site_fract_x
_atom_site_fract_y
_atom_site_fract_z
_atom_site_U_iso_or_equiv
_atom_site_adp_type
_atom_site_occupancy
Ti2    Ti    0.19940   0.43390   0.00420   0.00671  Uiso   1.00
Ti3    Ti    0.39800   0.10680   0.00780   0.00671  Uiso   1.00
Ti4    Ti    0.11760   0.16320   0.00020   0.00633  Uiso   1.00
Ti5    Ti    0.33970   0.26120   0.00020   0.00633  Uiso   1.00
O3     O     0.42100   0.19340   0.00500   0.01406  Uiso   1.00
O4     O     0.68620   0.26380   0.00500   0.01406  Uiso   1.00
O7     O     0.38000   0.01610  -0.00400   0.01406  Uiso   1.00
O10    O     0.24400   0.11060   0.01300   0.01406  Uiso   1.00
O12    O     0.03700   0.08090   0.04900   0.01406  Uiso   1.00
O13    O     0.76200   0.13800   0.02900   0.01406  Uiso   1.00
O14    O     0.84500   0.01940   0.04700   0.01406  Uiso   1.00
O15    O     0.05800   0.40620   0.04500   0.01406  Uiso   1.00
O16    O     0.46000   0.31720   0.01800   0.01406  Uiso   1.00
Ti1    Ti    0.00000   0.00000   0.00000   0.00671  Uiso   1.00
Nd1    Nd    0.19300   0.04520   0.25000   0.00798  Uiso   0.84
Nd2    Nd    0.70470   0.44880   0.25000   0.00798  Uiso   0.99
Nd3    Nd    0.99990   0.49460   0.25000   0.00798  Uiso   0.95
Nd4    Nd    0.40430   0.37740   0.25000   0.00798  Uiso   0.97
Nd5    Nd    0.90950   0.12400   0.25000   0.00798  Uiso   1.00
Ba3    Ba    0.08510   0.30020   0.25000   0.00684  Uiso   1.00
Ba4    Ba    0.59570   0.18670   0.25000   0.00684  Uiso   1.00
O1     O     0.10400   0.17460   0.25000   0.01406  Uiso   1.00
O2     O     0.59200   0.35780   0.25000   0.01406  Uiso   1.00
O5     O     0.31100   0.27510   0.25000   0.01406  Uiso   1.00
O6     O     0.84500   0.21820   0.25000   0.01406  Uiso   1.00
O8     O     0.22500   0.44240   0.25000   0.01406  Uiso   1.00
O9     O     0.67500   0.05240   0.25000   0.01406  Uiso   1.00
O11    O     0.47800   0.48390   0.25000   0.01406  Uiso   1.00
O17    O     0.42800   0.10100   0.25000   0.01406  Uiso   1.00
O18    O     0.87800   0.40580   0.25000   0.01406  Uiso   1.00
