#### CIF created by Crystallographica 2 ####

data_BariumSamariumTitaniumOxide

_audit_creation_method                    'Crystallographica 2' 
_cell_angle_alpha                         90 
_cell_angle_beta                          90 
_cell_angle_gamma                         90 
_cell_formula_units_Z                     2 
_cell_length_a                            12.1472 
_cell_length_b                            22.2972 
_cell_length_c                            7.65338 
_cell_volume                              2072.91 
_cgraph_comments                         'Tungsten bronze-type solid solutions Ba(6-3x) Sm(8+2x) Ti18 
     O54 (x = 0.3. 0.5. 0.67. 0.71) with superstructure
'
_cgraph_title                            'Barium Samarium Titanium Oxide (3.99/9.34/18/54)'
_chemical_formula_sum                    'Ba3.99 Sm9.34 Ti18 O54'
_symmetry_space_group_name_H-M           'P b n m'
_symmetry_space_group_name_Hall          '-P 2c 2ab'

loop_
        _symmetry_equiv_pos_as_xyz
        'x, y, z'
        '-x, -y, -z'
        '-x, -y, z+1/2'
        'x, y, -z+1/2'
        'x+1/2, -y+1/2, -z'
        '-x+1/2, y+1/2, z'
        '-x+1/2, y+1/2, -z+1/2'
        'x+1/2, -y+1/2, z+1/2'

loop_
        _atom_site_label
        _atom_site_type_symbol
        _atom_site_fract_x
        _atom_site_fract_y
        _atom_site_fract_z
        _atom_site_U_iso_or_equiv
        _atom_site_thermal_displace_type
        _atom_site_occupancy
        Ti1 Ti4+ 0 0 0 0.00519271 Uiso 1
        Ti2 Ti4+ 0.1998 0.4339 0.005 0.00519271 Uiso 1
        Ti3 Ti4+ 0.3971 0.1062 0.0108 0.00519271 Uiso 1
        Ti4 Ti4+ 0.1168 0.1634 0.0012 0.00519271 Uiso 1
        Ti5 Ti4+ 0.3393 0.2618 0.0025 0.00519271 Uiso 1
        Sm1 Sm3+ 0.1935 0.0446 0.25 0.00823235 Uiso 0.791
        Sm2 Sm3+ 0.7047 0.4489 0.25 0.00823235 Uiso 0.982
        Sm3 Sm3+ 0.9991 0.4944 0.25 0.00823235 Uiso 0.91
        Sm4 Sm3+ 0.4046 0.377 0.25 0.00823235 Uiso 0.993
        Sm5 Sm3+ 0.9089 0.124 0.25 0.00823235 Uiso 0.991
        Ba4 Ba2+ 0.0846 0.2998 0.25 0.00696583 Uiso 1
        Ba5 Ba2+ 0.596 0.1871 0.25 0.00696583 Uiso 1
        O1 O2- 0.102 0.177 0.25 0.0164647 Uiso 1
        O2 O2- 0.595 0.3565 0.25 0.0164647 Uiso 1
        O3 O2- 0.419 0.1951 0.007 0.0164647 Uiso 1
        O4 O2- 0.687 0.263 0.014 0.0164647 Uiso 1
        O5 O2- 0.309 0.2734 0.25 0.0164647 Uiso 1
        O6 O2- 0.845 0.215 0.25 0.0164647 Uiso 1
        O7 O2- 0.378 0.0151 0.012 0.0164647 Uiso 1
        O8 O2- 0.227 0.4442 0.25 0.0164647 Uiso 1
        O9 O2- 0.671 0.054 0.25 0.0164647 Uiso 1
        O10 O2- 0.242 0.1113 0.016 0.0164647 Uiso 1
        O11 O2- 0.476 0.4841 0.25 0.0164647 Uiso 1
        O12 O2- 0.037 0.0818 0.042 0.0164647 Uiso 1
        O13 O2- 0.767 0.1378 0.026 0.0164647 Uiso 1
        O14 O2- 0.849 0.0214 0.047 0.0164647 Uiso 1
        O15 O2- 0.059 0.4093 0.047 0.0164647 Uiso 1
        O16 O2- 0.461 0.3154 0.013 0.0164647 Uiso 1
        O17 O2- 0.427 0.1016 0.25 0.0164647 Uiso 1
        O18 O2- 0.878 0.413 0.25 0.0164647 Uiso 1

_eof

#### End of Crystallographic Information File ####
