#### CIF created by Crystallographica 2 ####

data_BariumSamariumTitaniumOxide

_audit_creation_method                    'Crystallographica 2' 
_cell_angle_alpha                         90 
_cell_angle_beta                          90 
_cell_angle_gamma                         90 
_cell_formula_units_Z                     2 
_cell_length_a                            12.171 
_cell_length_b                            22.3772 
_cell_length_c                            7.67523 
_cell_volume                              2090.37 
_cgraph_comments                         'Tungsten bronze-type solid solutions Ba(6-3x) Sm(8+2x) Ti18 
     O54 (x = 0.3. 0.5. 0.67. 0.71) with superstructure
'
_cgraph_title                            'Barium Samarium Titanium Oxide (5.1/8.6/18/54)'
_chemical_formula_sum                    'Ba5.1 Sm8.6 Ti18 O54'
_symmetry_space_group_name_H-M           'P b n m'
_symmetry_space_group_name_Hall          '-P 2c 2ab'

loop_
        _symmetry_equiv_pos_as_xyz
        'x, y, z'
        '-x, -y, -z'
        '-x, -y, z+1/2'
        'x, y, -z+1/2'
        'x+1/2, -y+1/2, -z'
        '-x+1/2, y+1/2, z'
        '-x+1/2, y+1/2, -z+1/2'
        'x+1/2, -y+1/2, z+1/2'

loop_
        _atom_site_label
        _atom_site_type_symbol
        _atom_site_fract_x
        _atom_site_fract_y
        _atom_site_fract_z
        _atom_site_U_iso_or_equiv
        _atom_site_thermal_displace_type
        _atom_site_occupancy
        Ti1 Ti4+ 0 0 0 0.00696583 Uiso 1
        Ti2 Ti4+ 0.1994 0.4336 0.001 0.00696583 Uiso 1
        Ti3 Ti4+ 0.3977 0.1069 0 0.00696583 Uiso 1
        Ti4 Ti4+ 0.1187 0.1641 -0.009 0.00696583 Uiso 1
        Ti5 Ti4+ 0.34 0.2604 -0.003 0.00696583 Uiso 1
        Sm1 Sm3+ 0.1926 0.0462 0.25 0.00747244 Uiso 0.68
        Ba1 Ba2+ 0.1926 0.0462 0.25 0.00747244 Uiso 0.21
        Sm2 Sm3+ 0.7053 0.4486 0.25 0.00747244 Uiso 1
        Sm3 Sm3+ 0.0008 0.4948 0.25 0.00747244 Uiso 0.65
        Ba3 Ba2+ 0.0008 0.4948 0.25 0.00747244 Uiso 0.34
        Sm4 Sm3+ 0.405 0.3776 0.25 0.00747244 Uiso 0.97
        Sm5 Sm3+ 0.9091 0.1234 0.25 0.00747244 Uiso 1
        Ba4 Ba2+ 0.0866 0.3013 0.25 0.00823235 Uiso 1
        Ba5 Ba2+ 0.5966 0.187 0.25 0.00823235 Uiso 1
        O1 O2- 0.093 0.167 0.25 0.00696583 Uiso 1
        O2 O2- 0.595 0.363 0.25 0.00696583 Uiso 1
        O3 O2- 0.423 0.1932 0.013 0.00696583 Uiso 1
        O4 O2- 0.688 0.2621 -0.016 0.00696583 Uiso 1
        O5 O2- 0.336 0.275 0.25 0.00696583 Uiso 1
        O6 O2- 0.811 0.222 0.25 0.00696583 Uiso 1
        O7 O2- 0.377 0.0174 0.003 0.00696583 Uiso 1
        O8 O2- 0.215 0.443 0.25 0.00696583 Uiso 1
        O9 O2- 0.679 0.057 0.25 0.00696583 Uiso 1
        O10 O2- 0.242 0.1095 0.028 0.00696583 Uiso 1
        O11 O2- 0.479 0.482 0.25 0.00696583 Uiso 1
        O12 O2- 0.039 0.0808 0.06 0.00696583 Uiso 1
        O13 O2- 0.759 0.1409 0.037 0.00696583 Uiso 1
        O14 O2- 0.848 0.0197 0.051 0.00696583 Uiso 1
        O15 O2- 0.055 0.4071 0.045 0.00696583 Uiso 1
        O16 O2- 0.457 0.3184 0.021 0.00696583 Uiso 1
        O17 O2- 0.432 0.0993 0.25 0.00696583 Uiso 1
        O18 O2- 0.877 0.409 0.25 0.00696583 Uiso 1

_eof

#### End of Crystallographic Information File ####
