# generated using pymatgen
data_Ba5Ta4O15
_symmetry_space_group_name_H-M   P-3m1
_cell_length_a   5.81978595
_cell_length_b   5.81978595
_cell_length_c   11.88463337
_cell_angle_alpha   90.00000000
_cell_angle_beta   90.00000000
_cell_angle_gamma   120.00000000
_symmetry_Int_Tables_number   164
_chemical_formula_structural   Ba5Ta4O15
_chemical_formula_sum   'Ba5 Ta4 O15'
_cell_volume   348.60245728
_cell_formula_units_Z   1
loop_
 _symmetry_equiv_pos_site_id
 _symmetry_equiv_pos_as_xyz
  1  'x, y, z'
  2  '-x, -y, -z'
  3  '-y, x-y, z'
  4  'y, -x+y, -z'
  5  '-x+y, -x, z'
  6  'x-y, x, -z'
  7  'y, x, -z'
  8  '-y, -x, z'
  9  'x-y, -y, -z'
  10  '-x+y, y, z'
  11  '-x, -x+y, -z'
  12  'x, x-y, z'
loop_
 _atom_type_symbol
 _atom_type_oxidation_number
  Ba2+  2.0
  Ta5+  5.0
  O2-  -2.0
loop_
 _atom_site_type_symbol
 _atom_site_label
 _atom_site_symmetry_multiplicity
 _atom_site_fract_x
 _atom_site_fract_y
 _atom_site_fract_z
 _atom_site_occupancy
  Ba2+  Ba0  2  0.33333333  0.66666667  0.78904662  1
  Ba2+  Ba1  2  0.33333333  0.66666667  0.43114623  1
  Ba2+  Ba2  1  0.00000000  0.00000000  0.00000000  1
  Ta5+  Ta3  2  0.00000000  0.00000000  0.31376488  1
  Ta5+  Ta4  2  0.33333333  0.66666667  0.10378157  1
  O2-  O5  6  0.16298598  0.32597195  0.61387311  1
  O2-  O6  6  0.16925234  0.33850468  0.19080481  1
  O2-  O7  3  0.00000000  0.50000000  0.00000000  1
