# generated using pymatgen
data_Ba8Ti3Nb4O24
_symmetry_space_group_name_H-M   P3m1
_cell_length_a   5.85472511
_cell_length_b   5.85472511
_cell_length_c   19.20148500
_cell_angle_alpha   90.00000000
_cell_angle_beta   90.00000000
_cell_angle_gamma   120.00000000
_symmetry_Int_Tables_number   156
_chemical_formula_structural   Ba8Ti3Nb4O24
_chemical_formula_sum   'Ba8 Ti3 Nb4 O24'
_cell_volume   570.00474016
_cell_formula_units_Z   1
loop_
 _symmetry_equiv_pos_site_id
 _symmetry_equiv_pos_as_xyz
  1  'x, y, z'
  2  '-y, x-y, z'
  3  '-x+y, -x, z'
  4  '-y, -x, z'
  5  '-x+y, y, z'
  6  'x, x-y, z'
loop_
 _atom_type_symbol
 _atom_type_oxidation_number
  Ba2+  2.0
  Ti4+  4.0
  Nb5+  5.0
  O2-  -2.0
loop_
 _atom_site_type_symbol
 _atom_site_label
 _atom_site_symmetry_multiplicity
 _atom_site_fract_x
 _atom_site_fract_y
 _atom_site_fract_z
 _atom_site_occupancy
  Ba2+  Ba0  1  0.00000000  0.00000000  0.01123600  1
  Ba2+  Ba1  1  0.00000000  0.00000000  0.50112200  1
  Ba2+  Ba2  1  0.33333333  0.66666667  0.14738800  1
  Ba2+  Ba3  1  0.33333333  0.66666667  0.37446800  1
  Ba2+  Ba4  1  0.33333333  0.66666667  0.74660400  1
  Ba2+  Ba5  1  0.66666667  0.33333333  0.24632600  1
  Ba2+  Ba6  1  0.66666667  0.33333333  0.63374200  1
  Ba2+  Ba7  1  0.66666667  0.33333333  0.86146400  1
  Ti4+  Ti8  1  0.00000000  0.00000000  0.67936800  1
  Ti4+  Ti9  1  0.00000000  0.00000000  0.82017500  1
  Ti4+  Ti10  1  0.33333333  0.66666667  0.56381400  1
  Nb5+  Nb11  1  0.00000000  0.00000000  0.30476000  1
  Nb5+  Nb12  1  0.33333333  0.66666667  0.93841700  1
  Nb5+  Nb13  1  0.66666667  0.33333333  0.06631600  1
  Nb5+  Nb14  1  0.66666667  0.33333333  0.44005700  1
  O2-  O15  3  0.00285500  0.50142750  0.50331800  1
  O2-  O16  3  0.00379200  0.50189600  0.99023800  1
  O2-  O17  3  0.16495700  0.32991400  0.26061700  1
  O2-  O18  3  0.16634700  0.33269400  0.87081400  1
  O2-  O19  3  0.16896400  0.33792800  0.62225400  1
  O2-  O20  3  0.29497600  0.14748800  0.74693100  1
  O2-  O21  3  0.33993800  0.16996900  0.38230600  1
  O2-  O22  3  0.34928800  0.17464400  0.11592500  1
