# generated using pymatgen
data_BaAl2(GeO4)2
_symmetry_space_group_name_H-M   C2/c
_cell_length_a   13.66001332
_cell_length_b   13.42105400
_cell_length_c   8.84169017
_cell_angle_alpha   90.00000000
_cell_angle_beta   101.04116347
_cell_angle_gamma   90.00000000
_symmetry_Int_Tables_number   15
_chemical_formula_structural   BaAl2(GeO4)2
_chemical_formula_sum   'Ba8 Al16 Ge16 O64'
_cell_volume   1590.95849466
_cell_formula_units_Z   8
loop_
 _symmetry_equiv_pos_site_id
 _symmetry_equiv_pos_as_xyz
  1  'x, y, z'
  2  '-x, -y, -z'
  3  '-x, y, -z+1/2'
  4  'x, -y, z+1/2'
  5  'x+1/2, y+1/2, z'
  6  '-x+1/2, -y+1/2, -z'
  7  '-x+1/2, y+1/2, -z+1/2'
  8  'x+1/2, -y+1/2, z+1/2'
loop_
 _atom_type_symbol
 _atom_type_oxidation_number
  Ba2+  2.0
  Al3+  3.0
  Ge4+  4.0
  O2-  -2.0
loop_
 _atom_site_type_symbol
 _atom_site_label
 _atom_site_symmetry_multiplicity
 _atom_site_fract_x
 _atom_site_fract_y
 _atom_site_fract_z
 _atom_site_occupancy
  Ba2+  Ba0  8  0.18410084  0.24972169  0.71123637  1
  Al3+  Al1  8  0.07674914  0.13088155  0.02542614  1
  Al3+  Al2  8  0.13695419  0.43082363  0.39133212  1
  Ge4+  Ge3  8  0.07660649  0.36790758  0.02286401  1
  Ge4+  Ge4  8  0.13872965  0.06887587  0.39417156  1
  O2-  O5  8  0.05214856  0.37471651  0.49116135  1
  O2-  O6  8  0.05221652  0.12362687  0.49130321  1
  O2-  O7  8  0.10467923  0.24897782  0.96129136  1
  O2-  O8  8  0.12240693  0.44069732  0.88863987  1
  O2-  O9  8  0.12631310  0.05952480  0.89180681  1
  O2-  O10  8  0.14187821  0.11885000  0.21383086  1
  O2-  O11  8  0.14241961  0.38133011  0.21085863  1
  O2-  O12  8  0.24910201  0.38335055  0.49868937  1
