# generated using pymatgen
data_BaAl2(SiO4)2
_symmetry_space_group_name_H-M   P2_1/c
_cell_length_a   8.58111292
_cell_length_b   9.59874661
_cell_length_c   9.07034756
_cell_angle_alpha   90.00000000
_cell_angle_beta   90.19073053
_cell_angle_gamma   90.00000000
_symmetry_Int_Tables_number   14
_chemical_formula_structural   BaAl2(SiO4)2
_chemical_formula_sum   'Ba4 Al8 Si8 O32'
_cell_volume   747.10160007
_cell_formula_units_Z   4
loop_
 _symmetry_equiv_pos_site_id
 _symmetry_equiv_pos_as_xyz
  1  'x, y, z'
  2  '-x, -y, -z'
  3  '-x, y+1/2, -z+1/2'
  4  'x, -y+1/2, z+1/2'
loop_
 _atom_type_symbol
 _atom_type_oxidation_number
  Ba2+  2.0
  Al3+  3.0
  Si4+  4.0
  O2-  -2.0
loop_
 _atom_site_type_symbol
 _atom_site_label
 _atom_site_symmetry_multiplicity
 _atom_site_fract_x
 _atom_site_fract_y
 _atom_site_fract_z
 _atom_site_occupancy
  Ba2+  Ba0  4  0.25095718  0.58851989  0.89816730  1
  Al3+  Al1  4  0.06913137  0.57826184  0.27525482  1
  Al3+  Al2  4  0.42805468  0.19310244  0.93604074  1
  Si4+  Si3  4  0.05924045  0.19857609  0.93143871  1
  Si4+  Si4  4  0.43712532  0.58326689  0.26802160  1
  O2-  O5  4  0.00043781  0.09035435  0.80356613  1
  O2-  O6  4  0.04351861  0.14106474  0.37236302  1
  O2-  O7  4  0.05865583  0.68390949  0.42983745  1
  O2-  O8  4  0.23539088  0.16465484  0.97895656  1
  O2-  O9  4  0.25891009  0.58774777  0.20688335  1
  O2-  O10  4  0.45036598  0.68473842  0.40932222  1
  O2-  O11  4  0.45548025  0.13695070  0.36850776  1
  O2-  O12  4  0.49646918  0.07258020  0.80580033  1
