# generated using pymatgen
data_BaCo2Si2O7
_symmetry_space_group_name_H-M   C2/c
_cell_length_a   7.35309000
_cell_length_b   12.92058600
_cell_length_c   13.92592104
_cell_angle_alpha   90.00000000
_cell_angle_beta   90.11900285
_cell_angle_gamma   90.00000000
_symmetry_Int_Tables_number   15
_chemical_formula_structural   BaCo2Si2O7
_chemical_formula_sum   'Ba8 Co16 Si16 O56'
_cell_volume   1323.04642712
_cell_formula_units_Z   8
loop_
 _symmetry_equiv_pos_site_id
 _symmetry_equiv_pos_as_xyz
  1  'x, y, z'
  2  '-x, -y, -z'
  3  '-x, y, -z+1/2'
  4  'x, -y, z+1/2'
  5  'x+1/2, y+1/2, z'
  6  '-x+1/2, -y+1/2, -z'
  7  '-x+1/2, y+1/2, -z+1/2'
  8  'x+1/2, -y+1/2, z+1/2'
loop_
 _atom_type_symbol
 _atom_type_oxidation_number
  Ba2+  2.0
  Co2+  2.0
  Si4+  4.0
  O2-  -2.0
loop_
 _atom_site_type_symbol
 _atom_site_label
 _atom_site_symmetry_multiplicity
 _atom_site_fract_x
 _atom_site_fract_y
 _atom_site_fract_z
 _atom_site_occupancy
  Ba2+  Ba0  8  0.20098350  0.01926950  0.62318300  1
  Co2+  Co1  8  0.03147400  0.23063200  0.01003500  1
  Co2+  Co2  4  0.00000000  0.22801700  0.25000000  1
  Co2+  Co3  4  0.00000000  0.23252400  0.75000000  1
  Si4+  Si4  8  0.18109650  0.39285550  0.11858400  1
  Si4+  Si5  8  0.21105650  0.37731150  0.63257500  1
  O2-  O6  8  0.00024250  0.31768450  0.13357700  1
  O2-  O7  8  0.07093550  0.27887250  0.61517700  1
  O2-  O8  8  0.09107600  0.48751100  0.62188700  1
  O2-  O9  8  0.12565150  0.11264150  0.44628800  1
  O2-  O10  8  0.16558150  0.11537150  0.79793300  1
  O2-  O11  8  0.21642800  0.13568100  0.25639400  1
  O2-  O12  8  0.24719300  0.13664300  0.98927400  1
