# generated using pymatgen
data_BaCuB2O5
_symmetry_space_group_name_H-M   C2
_cell_length_a   6.53214200
_cell_length_b   9.25467800
_cell_length_c   4.11280104
_cell_angle_alpha   90.00000000
_cell_angle_beta   96.47649686
_cell_angle_gamma   90.00000000
_symmetry_Int_Tables_number   5
_chemical_formula_structural   BaCuB2O5
_chemical_formula_sum   'Ba2 Cu2 B4 O10'
_cell_volume   247.04392123
_cell_formula_units_Z   2
loop_
 _symmetry_equiv_pos_site_id
 _symmetry_equiv_pos_as_xyz
  1  'x, y, z'
  2  '-x, y, -z'
  3  'x+1/2, y+1/2, z'
  4  '-x+1/2, y+1/2, -z'
loop_
 _atom_type_symbol
 _atom_type_oxidation_number
  Ba2+  2.0
  Cu2+  2.0
  B3+  3.0
  O2-  -2.0
loop_
 _atom_site_type_symbol
 _atom_site_label
 _atom_site_symmetry_multiplicity
 _atom_site_fract_x
 _atom_site_fract_y
 _atom_site_fract_z
 _atom_site_occupancy
  Ba2+  Ba0  2  0.00000000  0.00250300  0.00000000  1
  Cu2+  Cu1  2  0.00000000  0.59262500  0.50000000  1
  B3+  B2  4  0.17845950  0.30765650  0.40465900  1
  O2-  O3  4  0.18884950  0.72781250  0.75414200  1
  O2-  O4  4  0.21626700  0.45124500  0.46695000  1
  O2-  O5  2  0.00000000  0.23823400  0.50000000  1
