# generated using pymatgen
data_BaDy2ZnO5
_symmetry_space_group_name_H-M   Pnma
_cell_length_a   12.44543800
_cell_length_b   5.76047000
_cell_length_c   7.14998800
_cell_angle_alpha   90.00000000
_cell_angle_beta   90.00000000
_cell_angle_gamma   90.00000000
_symmetry_Int_Tables_number   62
_chemical_formula_structural   BaDy2ZnO5
_chemical_formula_sum   'Ba4 Dy8 Zn4 O20'
_cell_volume   512.59388119
_cell_formula_units_Z   4
loop_
 _symmetry_equiv_pos_site_id
 _symmetry_equiv_pos_as_xyz
  1  'x, y, z'
  2  '-x, -y, -z'
  3  '-x+1/2, -y, z+1/2'
  4  'x+1/2, y, -z+1/2'
  5  'x+1/2, -y+1/2, -z+1/2'
  6  '-x+1/2, y+1/2, z+1/2'
  7  '-x, y+1/2, -z'
  8  'x, -y+1/2, z'
loop_
 _atom_type_symbol
 _atom_type_oxidation_number
  Ba2+  2.0
  Dy3+  3.0
  Zn2+  2.0
  O2-  -2.0
loop_
 _atom_site_type_symbol
 _atom_site_label
 _atom_site_symmetry_multiplicity
 _atom_site_fract_x
 _atom_site_fract_y
 _atom_site_fract_z
 _atom_site_occupancy
  Ba2+  Ba0  4  0.10154700  0.75000000  0.07711700  1
  Dy3+  Dy1  4  0.07443600  0.25000000  0.39968700  1
  Dy3+  Dy2  4  0.20804200  0.75000000  0.61832300  1
  Zn2+  Zn3  4  0.14987600  0.25000000  0.80842700  1
  O2-  O4  8  0.06614800  0.00158000  0.66294400  1
  O2-  O5  8  0.22467100  0.50042200  0.35801700  1
  O2-  O6  4  0.10031300  0.25000000  0.07507000  1
