# generated using pymatgen
data_BaGd2ZnO5
_symmetry_space_group_name_H-M   Pnma
_cell_length_a   12.58583300
_cell_length_b   5.81990500
_cell_length_c   7.23504300
_cell_angle_alpha   90.00000000
_cell_angle_beta   90.00000000
_cell_angle_gamma   90.00000000
_symmetry_Int_Tables_number   62
_chemical_formula_structural   BaGd2ZnO5
_chemical_formula_sum   'Ba4 Gd8 Zn4 O20'
_cell_volume   529.95497934
_cell_formula_units_Z   4
loop_
 _symmetry_equiv_pos_site_id
 _symmetry_equiv_pos_as_xyz
  1  'x, y, z'
  2  '-x, -y, -z'
  3  '-x+1/2, -y, z+1/2'
  4  'x+1/2, y, -z+1/2'
  5  'x+1/2, -y+1/2, -z+1/2'
  6  '-x+1/2, y+1/2, z+1/2'
  7  '-x, y+1/2, -z'
  8  'x, -y+1/2, z'
loop_
 _atom_type_symbol
 _atom_type_oxidation_number
  Ba2+  2.0
  Gd3+  3.0
  Zn2+  2.0
  O2-  -2.0
loop_
 _atom_site_type_symbol
 _atom_site_label
 _atom_site_symmetry_multiplicity
 _atom_site_fract_x
 _atom_site_fract_y
 _atom_site_fract_z
 _atom_site_occupancy
  Ba2+  Ba0  4  0.10098000  0.75000000  0.07681500  1
  Gd3+  Gd1  4  0.07446600  0.25000000  0.39829700  1
  Gd3+  Gd2  4  0.20784500  0.75000000  0.61756100  1
  Zn2+  Zn3  4  0.14964700  0.25000000  0.80811000  1
  O2-  O4  8  0.06582900  0.00359900  0.66525200  1
  O2-  O5  8  0.22469400  0.50233500  0.35508400  1
  O2-  O6  4  0.09916300  0.25000000  0.07099000  1
