# generated using pymatgen
data_BaHo2ZnO5
_symmetry_space_group_name_H-M   Pnma
_cell_length_a   12.40011600
_cell_length_b   5.74187300
_cell_length_c   7.12283800
_cell_angle_alpha   90.00000000
_cell_angle_beta   90.00000000
_cell_angle_gamma   90.00000000
_symmetry_Int_Tables_number   62
_chemical_formula_structural   BaHo2ZnO5
_chemical_formula_sum   'Ba4 Ho8 Zn4 O20'
_cell_volume   507.14529104
_cell_formula_units_Z   4
loop_
 _symmetry_equiv_pos_site_id
 _symmetry_equiv_pos_as_xyz
  1  'x, y, z'
  2  '-x, -y, -z'
  3  '-x+1/2, -y, z+1/2'
  4  'x+1/2, y, -z+1/2'
  5  'x+1/2, -y+1/2, -z+1/2'
  6  '-x+1/2, y+1/2, z+1/2'
  7  '-x, y+1/2, -z'
  8  'x, -y+1/2, z'
loop_
 _atom_type_symbol
 _atom_type_oxidation_number
  Ba2+  2.0
  Ho3+  3.0
  Zn2+  2.0
  O2-  -2.0
loop_
 _atom_site_type_symbol
 _atom_site_label
 _atom_site_symmetry_multiplicity
 _atom_site_fract_x
 _atom_site_fract_y
 _atom_site_fract_z
 _atom_site_occupancy
  Ba2+  Ba0  4  0.10169200  0.75000000  0.07724100  1
  Ho3+  Ho1  4  0.07438600  0.25000000  0.39981400  1
  Ho3+  Ho2  4  0.20809400  0.75000000  0.61848700  1
  Zn2+  Zn3  4  0.15001800  0.25000000  0.80828200  1
  O2-  O4  8  0.06621400  0.00090100  0.66233100  1
  O2-  O5  8  0.22461500  0.00010100  0.35887100  1
  O2-  O6  4  0.10069900  0.25000000  0.07624200  1
