# generated using pymatgen
data_BaHo2CuO5
_symmetry_space_group_name_H-M   Pnma
_cell_length_a   12.21924400
_cell_length_b   5.68849900
_cell_length_c   7.20474700
_cell_angle_alpha   90.00000000
_cell_angle_beta   90.00000000
_cell_angle_gamma   90.00000000
_symmetry_Int_Tables_number   62
_chemical_formula_structural   BaHo2CuO5
_chemical_formula_sum   'Ba4 Ho8 Cu4 O20'
_cell_volume   500.79589235
_cell_formula_units_Z   4
loop_
 _symmetry_equiv_pos_site_id
 _symmetry_equiv_pos_as_xyz
  1  'x, y, z'
  2  '-x, -y, -z'
  3  '-x+1/2, -y, z+1/2'
  4  'x+1/2, y, -z+1/2'
  5  'x+1/2, -y+1/2, -z+1/2'
  6  '-x+1/2, y+1/2, z+1/2'
  7  '-x, y+1/2, -z'
  8  'x, -y+1/2, z'
loop_
 _atom_type_symbol
 _atom_type_oxidation_number
  Ba2+  2.0
  Ho3+  3.0
  Cu2+  2.0
  O2-  -2.0
loop_
 _atom_site_type_symbol
 _atom_site_label
 _atom_site_symmetry_multiplicity
 _atom_site_fract_x
 _atom_site_fract_y
 _atom_site_fract_z
 _atom_site_occupancy
  Ba2+  Ba0  4  0.09578200  0.75000000  0.06888900  1
  Ho3+  Ho1  4  0.07390200  0.25000000  0.39691700  1
  Ho3+  Ho2  4  0.21299100  0.75000000  0.61347900  1
  Cu2+  Cu3  4  0.16063600  0.25000000  0.78226400  1
  O2-  O4  8  0.06805700  0.00507400  0.66091200  1
  O2-  O5  8  0.22808700  0.50311900  0.35641100  1
  O2-  O6  4  0.10018300  0.25000000  0.08536000  1
