# generated using pymatgen
data_BaLa4Ti4O15
_symmetry_space_group_name_H-M   P-3c1
_cell_length_a   5.62966756
_cell_length_b   5.62966756
_cell_length_c   22.22690200
_cell_angle_alpha   90.00000000
_cell_angle_beta   90.00000000
_cell_angle_gamma   120.00000000
_symmetry_Int_Tables_number   165
_chemical_formula_structural   BaLa4Ti4O15
_chemical_formula_sum   'Ba2 La8 Ti8 O30'
_cell_volume   610.06353490
_cell_formula_units_Z   2
loop_
 _symmetry_equiv_pos_site_id
 _symmetry_equiv_pos_as_xyz
  1  'x, y, z'
  2  '-x, -y, -z'
  3  '-y, x-y, z'
  4  'y, -x+y, -z'
  5  '-x+y, -x, z'
  6  'x-y, x, -z'
  7  'y, x, -z+1/2'
  8  '-y, -x, z+1/2'
  9  'x-y, -y, -z+1/2'
  10  '-x+y, y, z+1/2'
  11  '-x, -x+y, -z+1/2'
  12  'x, x-y, z+1/2'
loop_
 _atom_type_symbol
 _atom_type_oxidation_number
  Ba2+  2.0
  La3+  3.0
  Ti4+  4.0
  O2-  -2.0
loop_
 _atom_site_type_symbol
 _atom_site_label
 _atom_site_symmetry_multiplicity
 _atom_site_fract_x
 _atom_site_fract_y
 _atom_site_fract_z
 _atom_site_occupancy
  Ba2+  Ba0  2  0.00000000  0.00000000  0.25000000  1
  La3+  La1  4  0.33333333  0.66666667  0.03947800  1
  La3+  La2  4  0.33333333  0.66666667  0.35844100  1
  Ti4+  Ti3  4  0.00000000  0.00000000  0.08876100  1
  Ti4+  Ti4  4  0.33333333  0.66666667  0.19756100  1
  O2-  O5  12  0.10217700  0.33992500  0.94762000  1
  O2-  O6  12  0.11252600  0.34225200  0.14678400  1
  O2-  O7  6  0.00000000  0.47987000  0.75000000  1
