#### CIF created by Crystallographica 2 ####

data_DibariumLanthanumNiobate

_audit_creation_method                    'Crystallographica 2' 
_cell_angle_alpha                         90 
_cell_angle_beta                          90.348 
_cell_angle_gamma                         90 
_cell_formula_units_Z                     2 
_cell_length_a                            6.1445 
_cell_length_b                            6.0913 
_cell_length_c                            8.604 
_cell_volume                              322.025 
_cgraph_comments                         'New insight into the symmetry and the structure of the 
     double perovskites Ba2 Ln Nb O6 (Ln = lanthanides and Y)
'
_cgraph_title                            'Dibarium Lanthanum Niobate'
_chemical_formula_sum                    'Ba2 La Nb O6'
_symmetry_space_group_name_H-M           'C 2/m'
_symmetry_space_group_name_Hall          '-I 2y'

loop_
        _symmetry_equiv_pos_as_xyz
        'x, y, z'
        'x+1/2, y+1/2, z+1/2'
        '-x, -y, -z'
        '-x+1/2, -y+1/2, -z+1/2'
        '-x, y, -z'
        '-x+1/2, y+1/2, -z+1/2'
        'x, -y, z'
        'x+1/2, -y+1/2, z+1/2'

loop_
        _atom_site_label
        _atom_site_type_symbol
        _atom_site_fract_x
        _atom_site_fract_y
        _atom_site_fract_z
        _atom_site_U_iso_or_equiv
        _atom_site_thermal_displace_type
        _atom_site_occupancy
        Ba1 Ba2+ 0.4953 0.5 0.2516 0.00658588 Uiso 1
        La1 La3+ 0.5 0 0 0.00658588 Uiso 1
        Nb1 Nb5+ 0 0.5 0 0.00658588 Uiso 1
        O1 O2- 0.582 0 0.28 0.00658588 Uiso 1
        O2 O2- 0.213 0.25 0.021 0.00658588 Uiso 1

_eof

#### End of Crystallographic Information File ####
