# generated using pymatgen
data_BaNd2CuO5
_symmetry_space_group_name_H-M   P4/mbm
_cell_length_a   6.76579000
_cell_length_b   6.76579000
_cell_length_c   5.88366500
_cell_angle_alpha   90.00000000
_cell_angle_beta   90.00000000
_cell_angle_gamma   90.00000000
_symmetry_Int_Tables_number   127
_chemical_formula_structural   BaNd2CuO5
_chemical_formula_sum   'Ba2 Nd4 Cu2 O10'
_cell_volume   269.33014495
_cell_formula_units_Z   2
loop_
 _symmetry_equiv_pos_site_id
 _symmetry_equiv_pos_as_xyz
  1  'x, y, z'
  2  '-x, -y, -z'
  3  '-y, x, z'
  4  'y, -x, -z'
  5  '-x, -y, z'
  6  'x, y, -z'
  7  'y, -x, z'
  8  '-y, x, -z'
  9  'x+1/2, -y+1/2, -z'
  10  '-x+1/2, y+1/2, z'
  11  '-y+1/2, -x+1/2, -z'
  12  'y+1/2, x+1/2, z'
  13  '-x+1/2, y+1/2, -z'
  14  'x+1/2, -y+1/2, z'
  15  'y+1/2, x+1/2, -z'
  16  '-y+1/2, -x+1/2, z'
loop_
 _atom_type_symbol
 _atom_type_oxidation_number
  Ba2+  2.0
  Nd3+  3.0
  Cu2+  2.0
  O2-  -2.0
loop_
 _atom_site_type_symbol
 _atom_site_label
 _atom_site_symmetry_multiplicity
 _atom_site_fract_x
 _atom_site_fract_y
 _atom_site_fract_z
 _atom_site_occupancy
  Ba2+  Ba0  2  0.00000000  0.00000000  0.00000000  1
  Nd3+  Nd1  4  0.17322100  0.67322100  0.50000000  1
  Cu2+  Cu2  2  0.00000000  0.50000000  0.00000000  1
  O2-  O3  8  0.13893400  0.36106600  0.24333300  1
  O2-  O4  2  0.00000000  0.00000000  0.50000000  1
