# generated using pymatgen
data_BaNd2Ti3O10
_symmetry_space_group_name_H-M   Cmcm
_cell_length_a   3.92799200
_cell_length_b   28.49112600
_cell_length_c   7.69400400
_cell_angle_alpha   90.00000000
_cell_angle_beta   90.00000000
_cell_angle_gamma   90.00000000
_symmetry_Int_Tables_number   63
_chemical_formula_structural   BaNd2Ti3O10
_chemical_formula_sum   'Ba4 Nd8 Ti12 O40'
_cell_volume   861.05841565
_cell_formula_units_Z   4
loop_
 _symmetry_equiv_pos_site_id
 _symmetry_equiv_pos_as_xyz
  1  'x, y, z'
  2  '-x, -y, -z'
  3  '-x, -y, z+1/2'
  4  'x, y, -z+1/2'
  5  'x, -y, -z'
  6  '-x, y, z'
  7  '-x, y, -z+1/2'
  8  'x, -y, z+1/2'
  9  'x+1/2, y+1/2, z'
  10  '-x+1/2, -y+1/2, -z'
  11  '-x+1/2, -y+1/2, z+1/2'
  12  'x+1/2, y+1/2, -z+1/2'
  13  'x+1/2, -y+1/2, -z'
  14  '-x+1/2, y+1/2, z'
  15  '-x+1/2, y+1/2, -z+1/2'
  16  'x+1/2, -y+1/2, z+1/2'
loop_
 _atom_type_symbol
 _atom_type_oxidation_number
  Ba2+  2.0
  Nd3+  3.0
  Ti4+  4.0
  O2-  -2.0
loop_
 _atom_site_type_symbol
 _atom_site_label
 _atom_site_symmetry_multiplicity
 _atom_site_fract_x
 _atom_site_fract_y
 _atom_site_fract_z
 _atom_site_occupancy
  Ba2+  Ba0  4  0.00000000  0.25702100  0.25000000  1
  Nd3+  Nd1  4  0.00000000  0.41980300  0.75000000  1
  Nd3+  Nd2  4  0.00000000  0.42728400  0.25000000  1
  Ti4+  Ti3  8  0.00000000  0.14579400  0.50506100  1
  Ti4+  Ti4  4  0.00000000  0.00000000  0.00000000  1
  O2-  O5  8  0.00000000  0.06638100  0.05548200  1
  O2-  O6  8  0.00000000  0.20693500  0.54720100  1
  O2-  O7  8  0.00000000  0.36957000  0.00736500  1
  O2-  O8  4  0.00000000  0.01759300  0.75000000  1
  O2-  O9  4  0.00000000  0.12232100  0.75000000  1
  O2-  O10  4  0.00000000  0.14680100  0.25000000  1
  O2-  O11  4  0.00000000  0.50000000  0.00000000  1
