# generated using pymatgen
data_BaTeO3
_symmetry_space_group_name_H-M   Pnma
_cell_length_a   14.88472134
_cell_length_b   6.15247695
_cell_length_c   12.37206862
_cell_angle_alpha   90.00000000
_cell_angle_beta   90.00000000
_cell_angle_gamma   90.00000000
_symmetry_Int_Tables_number   62
_chemical_formula_structural   BaTeO3
_chemical_formula_sum   'Ba12 Te12 O36'
_cell_volume   1133.00812414
_cell_formula_units_Z   12
loop_
 _symmetry_equiv_pos_site_id
 _symmetry_equiv_pos_as_xyz
  1  'x, y, z'
  2  '-x, -y, -z'
  3  '-x+1/2, -y, z+1/2'
  4  'x+1/2, y, -z+1/2'
  5  'x+1/2, -y+1/2, -z+1/2'
  6  '-x+1/2, y+1/2, z+1/2'
  7  '-x, y+1/2, -z'
  8  'x, -y+1/2, z'
loop_
 _atom_type_symbol
 _atom_type_oxidation_number
  Ba2+  2.0
  Te4+  4.0
  O2-  -2.0
loop_
 _atom_site_type_symbol
 _atom_site_label
 _atom_site_symmetry_multiplicity
 _atom_site_fract_x
 _atom_site_fract_y
 _atom_site_fract_z
 _atom_site_occupancy
  Ba2+  Ba0  4  0.00665791  0.25000000  0.13813035  1
  Ba2+  Ba1  4  0.01451092  0.75000000  0.37252457  1
  Ba2+  Ba2  4  0.19308233  0.25000000  0.85660079  1
  Te4+  Te3  4  0.13975718  0.75000000  0.09735201  1
  Te4+  Te4  4  0.16178944  0.25000000  0.38588674  1
  Te4+  Te5  4  0.18621930  0.75000000  0.65047132  1
  O2-  O6  8  0.11687476  0.52418695  0.71067893  1
  O2-  O7  8  0.11833030  0.52027713  0.00021391  1
  O2-  O8  8  0.15704299  0.01858095  0.28720285  1
  O2-  O9  4  0.02315064  0.75000000  0.15352055  1
  O2-  O10  4  0.04145940  0.25000000  0.42298605  1
  O2-  O11  4  0.15681570  0.75000000  0.50373076  1
