# generated using pymatgen
data_BaTe4O9
_symmetry_space_group_name_H-M   C2/c
_cell_length_a   19.98030400
_cell_length_b   4.60022000
_cell_length_c   23.54858135
_cell_angle_alpha   90.00000000
_cell_angle_beta   112.90517962
_cell_angle_gamma   90.00000000
_symmetry_Int_Tables_number   15
_chemical_formula_structural   BaTe4O9
_chemical_formula_sum   'Ba8 Te32 O72'
_cell_volume   1993.77389178
_cell_formula_units_Z   8
loop_
 _symmetry_equiv_pos_site_id
 _symmetry_equiv_pos_as_xyz
  1  'x, y, z'
  2  '-x, -y, -z'
  3  '-x, y, -z+1/2'
  4  'x, -y, z+1/2'
  5  'x+1/2, y+1/2, z'
  6  '-x+1/2, -y+1/2, -z'
  7  '-x+1/2, y+1/2, -z+1/2'
  8  'x+1/2, -y+1/2, z+1/2'
loop_
 _atom_type_symbol
 _atom_type_oxidation_number
  Ba2+  2.0
  Te4+  4.0
  O2-  -2.0
loop_
 _atom_site_type_symbol
 _atom_site_label
 _atom_site_symmetry_multiplicity
 _atom_site_fract_x
 _atom_site_fract_y
 _atom_site_fract_z
 _atom_site_occupancy
  Ba2+  Ba0  8  0.20864450  0.28995150  0.15907200  1
  Te4+  Te1  8  0.03947950  0.17325450  0.65266700  1
  Te4+  Te2  8  0.08376250  0.14912150  0.50858700  1
  Te4+  Te3  8  0.11228550  0.33226650  0.28081600  1
  Te4+  Te4  8  0.19746050  0.48412250  0.44963600  1
  O2-  O5  8  0.00599500  0.00173600  0.05656900  1
  O2-  O6  8  0.05755450  0.22342350  0.18191400  1
  O2-  O7  8  0.08821400  0.27830400  0.74630300  1
  O2-  O8  8  0.11226900  0.24331000  0.43452900  1
  O2-  O9  8  0.12615300  0.22869300  0.64152000  1
  O2-  O10  8  0.13667200  0.80737200  0.53150800  1
  O2-  O11  8  0.16630650  0.42600450  0.86073200  1
  O2-  O12  8  0.20216500  0.27432100  0.27538200  1
  O2-  O13  8  0.23944900  0.32625900  0.55232700  1
