#### CIF created by Crystallographica 2 ####

data_BariumTetratitanate

_audit_creation_method                    'Crystallographica 2' 
_cell_angle_alpha                         90 
_cell_angle_beta                          90 
_cell_angle_gamma                         90 
_cell_formula_units_Z                     2 
_cell_length_a                            14.527 
_cell_length_b                            3.794 
_cell_length_c                            6.293 
_cell_volume                              346.841 
_cgraph_comments                         'Refinement of Barium Tetratitanate. Ba Ti4 O9. and 
     Hexabarium 17-Titanate. Ba6 Ti17 O40
'
_cgraph_title                            'Barium Tetratitanate'
_chemical_formula_sum                    'Ba Ti4 O9'
_symmetry_space_group_name_H-M           'P m m n'
_symmetry_space_group_name_Hall          '-P 2ab 2a'

loop_
        _symmetry_equiv_pos_as_xyz
        'x, y, z'
        '-x, -y, -z'
        '-x+1/2, -y+1/2, z'
        'x+1/2, y+1/2, -z'
        'x+1/2, -y, -z'
        '-x+1/2, y, z'
        '-x, y+1/2, -z'
        'x, -y+1/2, z'

loop_
        _atom_site_label
        _atom_site_type_symbol
        _atom_site_fract_x
        _atom_site_fract_y
        _atom_site_fract_z
        _atom_site_U_iso_or_equiv
        _atom_site_thermal_displace_type
        _atom_site_occupancy
        Ba1 Ba2+ 0.25 0.75 0.7082 0 Uani 1
        Ti1 Ti4+ 0.0366 0.25 0.804 0 Uani 1
        Ti2 Ti4+ 0.129 0.25 0.2485 0 Uani 1
        O1 O2- 0.5098 0.25 0.1504 0 Uani 1
        O2 O2- 0.6012 0.25 0.74 0 Uani 1
        O3 O2- 0.152 0.25 0.9547 0 Uani 1
        O4 O2- 0.0934 0.25 0.561 0 Uani 1
        O5 O2- 0.25 0.25 0.343 0 Uani 1

loop_
        _atom_site_aniso_label
        _atom_site_aniso_U_11
        _atom_site_aniso_U_22
        _atom_site_aniso_U_33
        _atom_site_aniso_U_12
        _atom_site_aniso_U_13
        _atom_site_aniso_U_23
        Ba1 0.0130831 0.00757376 0.0157554 0 0 0
        Ti1 0.00253303 0.00303964 0.0036349 0 0.000645923 0
        Ti2 0.00354624 0.0041795 0.00425549 0 -0.000506606 0
        O1 0.00481276 0.00341959 0.00544601 0 -0.000126651 0
        O2 0.00734579 0.00227973 0.00721913 0 0.00202642 0
        O3 0.00481276 0.00848565 0.00405285 0 -0.000379954 0
        O4 0.0107654 0.010892 0.0041795 0 0.00227973 0
        O5 0.00126651 0.0139317 0.00848565 0 0 0

_eof

#### End of Crystallographic Information File ####
