# generated using pymatgen
data_BaTm2ZnO5
_symmetry_space_group_name_H-M   Pnma
_cell_length_a   12.30351900
_cell_length_b   5.70234800
_cell_length_c   7.06470600
_cell_angle_alpha   90.00000000
_cell_angle_beta   90.00000000
_cell_angle_gamma   90.00000000
_symmetry_Int_Tables_number   62
_chemical_formula_structural   BaTm2ZnO5
_chemical_formula_sum   'Ba4 Tm8 Zn4 O20'
_cell_volume   495.65233356
_cell_formula_units_Z   4
loop_
 _symmetry_equiv_pos_site_id
 _symmetry_equiv_pos_as_xyz
  1  'x, y, z'
  2  '-x, -y, -z'
  3  '-x+1/2, -y, z+1/2'
  4  'x+1/2, y, -z+1/2'
  5  'x+1/2, -y+1/2, -z+1/2'
  6  '-x+1/2, y+1/2, z+1/2'
  7  '-x, y+1/2, -z'
  8  'x, -y+1/2, z'
loop_
 _atom_type_symbol
 _atom_type_oxidation_number
  Ba2+  2.0
  Tm3+  3.0
  Zn2+  2.0
  O2-  -2.0
loop_
 _atom_site_type_symbol
 _atom_site_label
 _atom_site_symmetry_multiplicity
 _atom_site_fract_x
 _atom_site_fract_y
 _atom_site_fract_z
 _atom_site_occupancy
  Ba2+  Ba0  4  0.10189700  0.75000000  0.07818100  1
  Tm3+  Tm1  4  0.07432600  0.25000000  0.40054200  1
  Tm3+  Tm2  4  0.20818700  0.75000000  0.61943900  1
  Zn2+  Zn3  4  0.15025700  0.25000000  0.80852100  1
  O2-  O4  8  0.06625100  0.50044400  0.66132300  1
  O2-  O5  8  0.22452600  0.00121900  0.36117600  1
  O2-  O6  4  0.10168200  0.25000000  0.07923800  1
