# generated using pymatgen
data_BaV2ZnO7
_symmetry_space_group_name_H-M   Pnma
_cell_length_a   15.42861500
_cell_length_b   5.56389300
_cell_length_c   7.55565300
_cell_angle_alpha   90.00000000
_cell_angle_beta   90.00000000
_cell_angle_gamma   90.00000000
_symmetry_Int_Tables_number   62
_chemical_formula_structural   BaV2ZnO7
_chemical_formula_sum   'Ba4 V8 Zn4 O28'
_cell_volume   648.60115204
_cell_formula_units_Z   4
loop_
 _symmetry_equiv_pos_site_id
 _symmetry_equiv_pos_as_xyz
  1  'x, y, z'
  2  '-x, -y, -z'
  3  '-x+1/2, -y, z+1/2'
  4  'x+1/2, y, -z+1/2'
  5  'x+1/2, -y+1/2, -z+1/2'
  6  '-x+1/2, y+1/2, z+1/2'
  7  '-x, y+1/2, -z'
  8  'x, -y+1/2, z'
loop_
 _atom_type_symbol
 _atom_type_oxidation_number
  Ba2+  2.0
  V5+  5.0
  Zn2+  2.0
  O2-  -2.0
loop_
 _atom_site_type_symbol
 _atom_site_label
 _atom_site_symmetry_multiplicity
 _atom_site_fract_x
 _atom_site_fract_y
 _atom_site_fract_z
 _atom_site_occupancy
  Ba2+  Ba0  4  0.21024400  0.75000000  0.14727600  1
  V5+  V1  4  0.05651600  0.25000000  0.30556400  1
  V5+  V2  4  0.14061900  0.75000000  0.67248600  1
  Zn2+  Zn3  4  0.04767300  0.25000000  0.85089000  1
  O2-  O4  8  0.04996200  0.50197700  0.16876800  1
  O2-  O5  8  0.14357200  0.00235900  0.80804800  1
  O2-  O6  4  0.03874900  0.75000000  0.55139100  1
  O2-  O7  4  0.15093400  0.25000000  0.41849500  1
  O2-  O8  4  0.22950200  0.75000000  0.54107700  1
