# generated using pymatgen
data_BaV2O6
_symmetry_space_group_name_H-M   C222
_cell_length_a   8.51460381
_cell_length_b   12.69270309
_cell_length_c   7.96181936
_cell_angle_alpha   90.00000000
_cell_angle_beta   90.00000000
_cell_angle_gamma   90.00000000
_symmetry_Int_Tables_number   21
_chemical_formula_structural   BaV2O6
_chemical_formula_sum   'Ba6 V12 O36'
_cell_volume   860.46039572
_cell_formula_units_Z   6
loop_
 _symmetry_equiv_pos_site_id
 _symmetry_equiv_pos_as_xyz
  1  'x, y, z'
  2  '-x, -y, z'
  3  'x, -y, -z'
  4  '-x, y, -z'
  5  'x+1/2, y+1/2, z'
  6  '-x+1/2, -y+1/2, z'
  7  'x+1/2, -y+1/2, -z'
  8  '-x+1/2, y+1/2, -z'
loop_
 _atom_type_symbol
 _atom_type_oxidation_number
  Ba2+  2.0
  V5+  5.0
  O2-  -2.0
loop_
 _atom_site_type_symbol
 _atom_site_label
 _atom_site_symmetry_multiplicity
 _atom_site_fract_x
 _atom_site_fract_y
 _atom_site_fract_z
 _atom_site_occupancy
  Ba2+  Ba0  4  0.00000000  0.16309748  0.00000000  1
  Ba2+  Ba1  2  0.00000000  0.00000000  0.50000000  1
  V5+  V2  8  0.17568212  0.42663484  0.75999372  1
  V5+  V3  4  0.25000000  0.25000000  0.43517291  1
  O2-  O4  8  0.09322969  0.22510597  0.31835473  1
  O2-  O5  8  0.16698657  0.00155598  0.19983335  1
  O2-  O6  8  0.16785625  0.33989505  0.91334474  1
  O2-  O7  8  0.22423277  0.36677870  0.56195907  1
  O2-  O8  4  0.00000000  0.50000000  0.25495520  1
