# generated using pymatgen
data_BaY2(MoO4)4
_symmetry_space_group_name_H-M   C2/c
_cell_length_a   5.32394800
_cell_length_b   12.77095800
_cell_length_c   19.63154869
_cell_angle_alpha   90.00000000
_cell_angle_beta   91.39455091
_cell_angle_gamma   90.00000000
_symmetry_Int_Tables_number   15
_chemical_formula_structural   BaY2(MoO4)4
_chemical_formula_sum   'Ba4 Y8 Mo16 O64'
_cell_volume   1334.39126350
_cell_formula_units_Z   4
loop_
 _symmetry_equiv_pos_site_id
 _symmetry_equiv_pos_as_xyz
  1  'x, y, z'
  2  '-x, -y, -z'
  3  '-x, y, -z+1/2'
  4  'x, -y, z+1/2'
  5  'x+1/2, y+1/2, z'
  6  '-x+1/2, -y+1/2, -z'
  7  '-x+1/2, y+1/2, -z+1/2'
  8  'x+1/2, -y+1/2, z+1/2'
loop_
 _atom_type_symbol
 _atom_type_oxidation_number
  Ba2+  2.0
  Y3+  3.0
  Mo6+  6.0
  O2-  -2.0
loop_
 _atom_site_type_symbol
 _atom_site_label
 _atom_site_symmetry_multiplicity
 _atom_site_fract_x
 _atom_site_fract_y
 _atom_site_fract_z
 _atom_site_occupancy
  Ba2+  Ba0  4  0.00000000  0.46870400  0.25000000  1
  Y3+  Y1  8  0.00223750  0.35128950  0.46790100  1
  Mo6+  Mo2  8  0.00355200  0.23986200  0.85214500  1
  Mo6+  Mo3  8  0.01242050  0.05835050  0.09006500  1
  O2-  O4  8  0.11852500  0.08223100  0.33101700  1
  O2-  O5  8  0.12686750  0.36154950  0.82610300  1
  O2-  O6  8  0.15870450  0.17054950  0.04391000  1
  O2-  O7  8  0.16820150  0.25923550  0.56653400  1
  O2-  O8  8  0.20768150  0.19382350  0.71119300  1
  O2-  O9  8  0.23201450  0.04787550  0.60194000  1
  O2-  O10  8  0.23425550  0.35072950  0.13242000  1
  O2-  O11  8  0.24207400  0.48265500  0.53512600  1
