# generated using pymatgen
data_Ge(Bi3O5)4
_symmetry_space_group_name_H-M   I23
_cell_length_a   10.15269680
_cell_length_b   10.15269680
_cell_length_c   10.15269680
_cell_angle_alpha   90.00000000
_cell_angle_beta   90.00000000
_cell_angle_gamma   90.00000000
_symmetry_Int_Tables_number   197
_chemical_formula_structural   Ge(Bi3O5)4
_chemical_formula_sum   'Ge2 Bi24 O40'
_cell_volume   1046.51208971
_cell_formula_units_Z   2
loop_
 _symmetry_equiv_pos_site_id
 _symmetry_equiv_pos_as_xyz
  1  'x, y, z'
  2  '-x, -y, z'
  3  'x, -y, -z'
  4  '-x, y, -z'
  5  'z, x, y'
  6  'z, -x, -y'
  7  '-z, x, -y'
  8  '-z, -x, y'
  9  'y, z, x'
  10  '-y, z, -x'
  11  '-y, -z, x'
  12  'y, -z, -x'
  13  'x+1/2, y+1/2, z+1/2'
  14  '-x+1/2, -y+1/2, z+1/2'
  15  'x+1/2, -y+1/2, -z+1/2'
  16  '-x+1/2, y+1/2, -z+1/2'
  17  'z+1/2, x+1/2, y+1/2'
  18  'z+1/2, -x+1/2, -y+1/2'
  19  '-z+1/2, x+1/2, -y+1/2'
  20  '-z+1/2, -x+1/2, y+1/2'
  21  'y+1/2, z+1/2, x+1/2'
  22  '-y+1/2, z+1/2, -x+1/2'
  23  '-y+1/2, -z+1/2, x+1/2'
  24  'y+1/2, -z+1/2, -x+1/2'
loop_
 _atom_type_symbol
 _atom_type_oxidation_number
  Ge4+  4.0
  Bi3+  3.0
  O2-  -2.0
loop_
 _atom_site_type_symbol
 _atom_site_label
 _atom_site_symmetry_multiplicity
 _atom_site_fract_x
 _atom_site_fract_y
 _atom_site_fract_z
 _atom_site_occupancy
  Ge4+  Ge0  2  0.00000000  0.00000000  0.00000000  1
  Bi3+  Bi1  24  0.01560590  0.17587678  0.31937387  1
  O2-  O2  24  0.01138905  0.36761457  0.75243780  1
  O2-  O3  8  0.10089536  0.89910464  0.10089536  1
  O2-  O4  8  0.19597039  0.19597039  0.19597039  1
