# generated using pymatgen
data_Bi2Mo2O9
_symmetry_space_group_name_H-M   P2_1/c
_cell_length_a   12.02915900
_cell_length_b   10.98605400
_cell_length_c   17.07636736
_cell_angle_alpha   90.00000000
_cell_angle_beta   134.51919118
_cell_angle_gamma   90.00000000
_symmetry_Int_Tables_number   14
_chemical_formula_structural   Bi2Mo2O9
_chemical_formula_sum   'Bi16 Mo16 O72'
_cell_volume   1609.05741119
_cell_formula_units_Z   8
loop_
 _symmetry_equiv_pos_site_id
 _symmetry_equiv_pos_as_xyz
  1  'x, y, z'
  2  '-x, -y, -z'
  3  '-x, y+1/2, -z+1/2'
  4  'x, -y+1/2, z+1/2'
loop_
 _atom_type_symbol
 _atom_type_oxidation_number
  Bi3+  3.0
  Mo6+  6.0
  O2-  -2.0
loop_
 _atom_site_type_symbol
 _atom_site_label
 _atom_site_symmetry_multiplicity
 _atom_site_fract_x
 _atom_site_fract_y
 _atom_site_fract_z
 _atom_site_occupancy
  Bi3+  Bi0  4  0.14234300  0.12044200  0.89990200  1
  Bi3+  Bi1  4  0.15293300  0.62375000  0.89547000  1
  Bi3+  Bi2  4  0.16058800  0.62253100  0.24768000  1
  Bi3+  Bi3  4  0.49854200  0.12400200  0.25684400  1
  Mo6+  Mo4  4  0.16392700  0.13011800  0.57950500  1
  Mo6+  Mo5  4  0.17238800  0.62243700  0.58345800  1
  Mo6+  Mo6  4  0.49198200  0.62776700  0.90978200  1
  Mo6+  Mo7  4  0.49424300  0.62467200  0.57785100  1
  O2-  O8  4  0.02654300  0.00788700  0.75229600  1
  O2-  O9  4  0.03049300  0.73732600  0.74682900  1
  O2-  O10  4  0.04117200  0.18456300  0.59491700  1
  O2-  O11  4  0.04609800  0.69075200  0.59549100  1
  O2-  O12  4  0.05763200  0.06689600  0.44314300  1
  O2-  O13  4  0.07147700  0.54485300  0.45678400  1
  O2-  O14  4  0.27513000  0.00802300  0.67790600  1
  O2-  O15  4  0.28123600  0.74474800  0.59167600  1
  O2-  O16  4  0.28572600  0.24753000  0.10275900  1
  O2-  O17  4  0.29512400  0.51262400  0.69184300  1
  O2-  O18  4  0.32749600  0.68628100  0.44080100  1
  O2-  O19  4  0.34111100  0.56600800  0.89780200  1
  O2-  O20  4  0.34991000  0.05566900  0.90130500  1
  O2-  O21  4  0.36264100  0.20415500  0.46427500  1
  O2-  O22  4  0.40145800  0.74477900  0.80452900  1
  O2-  O23  4  0.40853300  0.00519600  0.59416700  1
  O2-  O24  4  0.41876600  0.50461400  0.60121200  1
  O2-  O25  4  0.42134900  0.24171900  0.82145100  1
