# generated using pymatgen
data_Bi2MoO6
_symmetry_space_group_name_H-M   P2_1/c
_cell_length_a   17.48922452
_cell_length_b   22.85529700
_cell_length_c   5.65596200
_cell_angle_alpha   90.00000000
_cell_angle_beta   90.53257082
_cell_angle_gamma   90.00000000
_symmetry_Int_Tables_number   14
_chemical_formula_structural   Bi2MoO6
_chemical_formula_sum   'Bi32 Mo16 O96'
_cell_volume   2260.71150101
_cell_formula_units_Z   16
loop_
 _symmetry_equiv_pos_site_id
 _symmetry_equiv_pos_as_xyz
  1  'x, y, z'
  2  '-x, -y, -z'
  3  '-x, y+1/2, -z+1/2'
  4  'x, -y+1/2, z+1/2'
loop_
 _atom_type_symbol
 _atom_type_oxidation_number
  Bi3+  3.0
  Mo6+  6.0
  O2-  -2.0
loop_
 _atom_site_type_symbol
 _atom_site_label
 _atom_site_symmetry_multiplicity
 _atom_site_fract_x
 _atom_site_fract_y
 _atom_site_fract_z
 _atom_site_occupancy
  Bi3+  Bi0  4  0.08888100  0.06433600  0.99958400  1
  Bi3+  Bi1  4  0.09337900  0.69502700  0.51930300  1
  Bi3+  Bi2  4  0.25703800  0.68854200  0.94154100  1
  Bi3+  Bi3  4  0.25807000  0.19529200  0.00036300  1
  Bi3+  Bi4  4  0.25985700  0.57005900  0.50179800  1
  Bi3+  Bi5  4  0.40958600  0.69154700  0.43535500  1
  Bi3+  Bi6  4  0.41025900  0.57009100  0.00477900  1
  Bi3+  Bi7  4  0.42679100  0.19386800  0.47428300  1
  Mo6+  Mo8  4  0.08247900  0.55589800  0.99370100  1
  Mo6+  Mo9  4  0.08430000  0.18321300  0.48493400  1
  Mo6+  Mo10  4  0.23308100  0.06096200  0.49267400  1
  Mo6+  Mo11  4  0.41677500  0.06749500  0.00249200  1
  O2-  O12  4  0.01127300  0.22724900  0.61079900  1
  O2-  O13  4  0.02350500  0.60056200  0.80737900  1
  O2-  O14  4  0.02783600  0.52185500  0.23258600  1
  O2-  O15  4  0.04081700  0.14327500  0.24044800  1
  O2-  O16  4  0.12753200  0.13913100  0.72047500  1
  O2-  O17  4  0.13320200  0.50756700  0.78609800  1
  O2-  O18  4  0.15024800  0.60359000  0.12973700  1
  O2-  O19  4  0.15291100  0.74399400  0.25113000  1
  O2-  O20  4  0.16072800  0.22856800  0.37285000  1
  O2-  O21  4  0.18063200  0.02633500  0.74080800  1
  O2-  O22  4  0.18735800  0.10006400  0.23647900  1
  O2-  O23  4  0.19746700  0.64831300  0.60801000  1
  O2-  O24  4  0.29210100  0.11521200  0.62105600  1
  O2-  O25  4  0.29520500  0.00714300  0.37499700  1
  O2-  O26  4  0.32079400  0.24827500  0.74624900  1
  O2-  O27  4  0.32611500  0.61783000  0.24517000  1
  O2-  O28  4  0.33157300  0.74983400  0.23437700  1
  O2-  O29  4  0.33693900  0.61684100  0.74718800  1
  O2-  O30  4  0.36164400  0.13307000  0.08930800  1
  O2-  O31  4  0.36401100  0.00786000  0.87518900  1
  O2-  O32  4  0.46025500  0.65302600  0.10241600  1
  O2-  O33  4  0.46438500  0.03969100  0.25753100  1
  O2-  O34  4  0.48764900  0.24879200  0.72788300  1
  O2-  O35  4  0.48857200  0.09306300  0.80202700  1
