# generated using pymatgen
data_Ti4Bi2O11
_symmetry_space_group_name_H-M   C2/m
_cell_length_a   14.72435217
_cell_length_b   3.78207706
_cell_length_c   10.15866067
_cell_angle_alpha   90.00000000
_cell_angle_beta   132.78195560
_cell_angle_gamma   90.00000000
_symmetry_Int_Tables_number   12
_chemical_formula_structural   Ti4Bi2O11
_chemical_formula_sum   'Ti8 Bi4 O22'
_cell_volume   415.20811577
_cell_formula_units_Z   2
loop_
 _symmetry_equiv_pos_site_id
 _symmetry_equiv_pos_as_xyz
  1  'x, y, z'
  2  '-x, -y, -z'
  3  '-x, y, -z'
  4  'x, -y, z'
  5  'x+1/2, y+1/2, z'
  6  '-x+1/2, -y+1/2, -z'
  7  '-x+1/2, y+1/2, -z'
  8  'x+1/2, -y+1/2, z'
loop_
 _atom_type_symbol
 _atom_type_oxidation_number
  Ti4+  4.0
  Bi3+  3.0
  O2-  -2.0
loop_
 _atom_site_type_symbol
 _atom_site_label
 _atom_site_symmetry_multiplicity
 _atom_site_fract_x
 _atom_site_fract_y
 _atom_site_fract_z
 _atom_site_occupancy
  Ti4+  Ti0  4  0.11874505  0.50000000  0.53208980  1
  Ti4+  Ti1  4  0.16261781  0.50000000  0.21752793  1
  Bi3+  Bi2  4  0.10965741  0.00000000  0.85918281  1
  O2-  O3  4  0.06368080  0.50000000  0.66942005  1
  O2-  O4  4  0.12577731  0.50000000  0.35507812  1
  O2-  O5  4  0.14456727  0.00000000  0.57049878  1
  O2-  O6  4  0.20084549  0.00000000  0.23951351  1
  O2-  O7  4  0.20876316  0.50000000  0.04989457  1
  O2-  O8  2  0.00000000  0.50000000  0.00000000  1
