# generated using pymatgen
data_Bi3B5O12
_symmetry_space_group_name_H-M   Pnma
_cell_length_a   6.55314361
_cell_length_b   7.75645181
_cell_length_c   18.47917474
_cell_angle_alpha   90.00000000
_cell_angle_beta   90.00000000
_cell_angle_gamma   90.00000000
_symmetry_Int_Tables_number   62
_chemical_formula_structural   Bi3B5O12
_chemical_formula_sum   'Bi12 B20 O48'
_cell_volume   939.28060827
_cell_formula_units_Z   4
loop_
 _symmetry_equiv_pos_site_id
 _symmetry_equiv_pos_as_xyz
  1  'x, y, z'
  2  '-x, -y, -z'
  3  '-x+1/2, -y, z+1/2'
  4  'x+1/2, y, -z+1/2'
  5  'x+1/2, -y+1/2, -z+1/2'
  6  '-x+1/2, y+1/2, z+1/2'
  7  '-x, y+1/2, -z'
  8  'x, -y+1/2, z'
loop_
 _atom_type_symbol
 _atom_type_oxidation_number
  Bi3+  3.0
  B3+  3.0
  O2-  -2.0
loop_
 _atom_site_type_symbol
 _atom_site_label
 _atom_site_symmetry_multiplicity
 _atom_site_fract_x
 _atom_site_fract_y
 _atom_site_fract_z
 _atom_site_occupancy
  Bi3+  Bi0  8  0.01514457  0.01571522  0.90330412  1
  Bi3+  Bi1  4  0.03668717  0.75000000  0.31441207  1
  B3+  B2  8  0.12520381  0.09573096  0.26901017  1
  B3+  B3  4  0.06763790  0.25000000  0.38952180  1
  B3+  B4  4  0.16923871  0.25000000  0.51932928  1
  B3+  B5  4  0.20317666  0.75000000  0.51155307  1
  O2-  O6  8  0.11597414  0.09374574  0.34349814  1
  O2-  O7  8  0.14346469  0.55559151  0.23340653  1
  O2-  O8  8  0.17483866  0.09200915  0.99947066  1
  O2-  O9  4  0.02828455  0.75000000  0.45949827  1
  O2-  O10  4  0.11299245  0.25000000  0.23144510  1
  O2-  O11  4  0.13454109  0.75000000  0.58588309  1
  O2-  O12  4  0.16046477  0.25000000  0.85208995  1
  O2-  O13  4  0.18487875  0.75000000  0.07407564  1
  O2-  O14  4  0.22550056  0.25000000  0.44734217  1
