# generated using pymatgen
data_Bi4B2O9
_symmetry_space_group_name_H-M   P2_1/c
_cell_length_a   11.14115447
_cell_length_b   6.57010976
_cell_length_c   11.07295662
_cell_angle_alpha   90.00000000
_cell_angle_beta   90.61439445
_cell_angle_gamma   90.00000000
_symmetry_Int_Tables_number   14
_chemical_formula_structural   Bi4B2O9
_chemical_formula_sum   'Bi16 B8 O36'
_cell_volume   810.47840905
_cell_formula_units_Z   4
loop_
 _symmetry_equiv_pos_site_id
 _symmetry_equiv_pos_as_xyz
  1  'x, y, z'
  2  '-x, -y, -z'
  3  '-x, y+1/2, -z+1/2'
  4  'x, -y+1/2, z+1/2'
loop_
 _atom_type_symbol
 _atom_type_oxidation_number
  Bi3+  3.0
  B3+  3.0
  O2-  -2.0
loop_
 _atom_site_type_symbol
 _atom_site_label
 _atom_site_symmetry_multiplicity
 _atom_site_fract_x
 _atom_site_fract_y
 _atom_site_fract_z
 _atom_site_occupancy
  Bi3+  Bi0  4  0.00924898  0.01833957  0.15357552  1
  Bi3+  Bi1  4  0.19524751  0.04411213  0.50866031  1
  Bi3+  Bi2  4  0.34384120  0.55786500  0.48035500  1
  Bi3+  Bi3  4  0.49791267  0.07263407  0.34043441  1
  B3+  B4  4  0.22374846  0.74642497  0.25496314  1
  B3+  B5  4  0.25018388  0.23431749  0.73428481  1
  O2-  O6  4  0.07921853  0.15730909  0.98605164  1
  O2-  O7  4  0.13649035  0.15938247  0.71722445  1
  O2-  O8  4  0.14615002  0.73569699  0.85210296  1
  O2-  O9  4  0.18642422  0.70758801  0.63928919  1
  O2-  O10  4  0.28966636  0.18492314  0.34207719  1
  O2-  O11  4  0.32499158  0.22728351  0.63405427  1
  O2-  O12  4  0.33836072  0.67681123  0.27893922  1
  O2-  O13  4  0.38448615  0.60359432  0.99476006  1
  O2-  O14  4  0.49871078  0.59792341  0.60888813  1
