# generated using pymatgen
data_VCu2BiO6
_symmetry_space_group_name_H-M   P2_1/c
_cell_length_a   13.68536400
_cell_length_b   7.88955600
_cell_length_c   16.47856605
_cell_angle_alpha   90.00000000
_cell_angle_beta   117.24999002
_cell_angle_gamma   90.00000000
_symmetry_Int_Tables_number   14
_chemical_formula_structural   VCu2BiO6
_chemical_formula_sum   'V12 Cu24 Bi12 O72'
_cell_volume   1581.75241863
_cell_formula_units_Z   12
loop_
 _symmetry_equiv_pos_site_id
 _symmetry_equiv_pos_as_xyz
  1  'x, y, z'
  2  '-x, -y, -z'
  3  '-x, y+1/2, -z+1/2'
  4  'x, -y+1/2, z+1/2'
loop_
 _atom_type_symbol
 _atom_type_oxidation_number
  V5+  5.0
  Cu2+  2.0
  Bi3+  3.0
  O2-  -2.0
loop_
 _atom_site_type_symbol
 _atom_site_label
 _atom_site_symmetry_multiplicity
 _atom_site_fract_x
 _atom_site_fract_y
 _atom_site_fract_z
 _atom_site_occupancy
  V5+  V0  4  0.03813500  0.00409300  0.84659700  1
  V5+  V1  4  0.27047000  0.52176900  0.95919000  1
  V5+  V2  4  0.37545400  0.02159200  0.18417600  1
  Cu2+  Cu3  4  0.13197400  0.18849400  0.05617200  1
  Cu2+  Cu4  4  0.13948500  0.68474300  0.55174400  1
  Cu2+  Cu5  4  0.19835500  0.20762200  0.26713200  1
  Cu2+  Cu6  4  0.20631300  0.69660000  0.75992300  1
  Cu2+  Cu7  4  0.47406800  0.18336800  0.39801100  1
  Cu2+  Cu8  4  0.48002600  0.68034400  0.89589000  1
  Bi3+  Bi9  4  0.03181800  0.51388800  0.12197000  1
  Bi3+  Bi10  4  0.33854800  0.01579300  0.71291300  1
  Bi3+  Bi11  4  0.34307200  0.51465700  0.43895600  1
  O2-  O12  4  0.00529200  0.67446200  0.99787400  1
  O2-  O13  4  0.04156100  0.17357600  0.19911100  1
  O2-  O14  4  0.04651700  0.68020100  0.69512500  1
  O2-  O15  4  0.08952800  0.00618300  0.96713700  1
  O2-  O16  4  0.14556400  0.01115200  0.81593000  1
  O2-  O17  4  0.18209500  0.16206100  0.66075300  1
  O2-  O18  4  0.18823900  0.66386800  0.15529600  1
  O2-  O19  4  0.20257400  0.12963300  0.48813500  1
  O2-  O20  4  0.22892500  0.00137500  0.13436700  1
  O2-  O21  4  0.23008600  0.50013800  0.83818500  1
  O2-  O22  4  0.23352900  0.72051600  0.97630900  1
  O2-  O23  4  0.34166600  0.17637400  0.82917200  1
  O2-  O24  4  0.34713200  0.67938700  0.32865900  1
  O2-  O25  4  0.40506100  0.22003500  0.15724100  1
  O2-  O26  4  0.41558300  0.50373300  0.02982500  1
  O2-  O27  4  0.43275800  0.62928900  0.64561900  1
  O2-  O28  4  0.43446700  0.00559100  0.30556700  1
  O2-  O29  4  0.49696300  0.17537100  0.00182600  1
