# generated using pymatgen
data_Ca2GeO4
_symmetry_space_group_name_H-M   Pnma
_cell_length_a   11.41128526
_cell_length_b   6.79145620
_cell_length_c   5.25043721
_cell_angle_alpha   90.00000000
_cell_angle_beta   90.00000000
_cell_angle_gamma   90.00000000
_symmetry_Int_Tables_number   62
_chemical_formula_structural   Ca2GeO4
_chemical_formula_sum   'Ca8 Ge4 O16'
_cell_volume   406.90491460
_cell_formula_units_Z   4
loop_
 _symmetry_equiv_pos_site_id
 _symmetry_equiv_pos_as_xyz
  1  'x, y, z'
  2  '-x, -y, -z'
  3  '-x+1/2, -y, z+1/2'
  4  'x+1/2, y, -z+1/2'
  5  'x+1/2, -y+1/2, -z+1/2'
  6  '-x+1/2, y+1/2, z+1/2'
  7  '-x, y+1/2, -z'
  8  'x, -y+1/2, z'
loop_
 _atom_type_symbol
 _atom_type_oxidation_number
  Ca2+  2.0
  Ge4+  4.0
  O2-  -2.0
loop_
 _atom_site_type_symbol
 _atom_site_label
 _atom_site_symmetry_multiplicity
 _atom_site_fract_x
 _atom_site_fract_y
 _atom_site_fract_z
 _atom_site_occupancy
  Ca2+  Ca0  4  0.00000000  0.00000000  0.00000000  1
  Ca2+  Ca1  4  0.22053293  0.75000000  0.49260143  1
  Ge4+  Ge2  4  0.09602160  0.25000000  0.43043645  1
  O2-  O3  8  0.16364621  0.04367778  0.28388992  1
  O2-  O4  4  0.04620515  0.75000000  0.71242268  1
  O2-  O5  4  0.09283777  0.25000000  0.76345829  1
