# generated using pymatgen
data_Ca2HoTaO6
_symmetry_space_group_name_H-M   P2_1/c
_cell_length_a   5.64517474
_cell_length_b   5.81149500
_cell_length_c   9.85176690
_cell_angle_alpha   90.00000000
_cell_angle_beta   124.56268633
_cell_angle_gamma   90.00000000
_symmetry_Int_Tables_number   14
_chemical_formula_structural   Ca2HoTaO6
_chemical_formula_sum   'Ca4 Ho2 Ta2 O12'
_cell_volume   266.16206259
_cell_formula_units_Z   2
loop_
 _symmetry_equiv_pos_site_id
 _symmetry_equiv_pos_as_xyz
  1  'x, y, z'
  2  '-x, -y, -z'
  3  '-x, y+1/2, -z+1/2'
  4  'x, -y+1/2, z+1/2'
loop_
 _atom_type_symbol
 _atom_type_oxidation_number
  Ca2+  2.0
  Ho3+  3.0
  Ta5+  5.0
  O2-  -2.0
loop_
 _atom_site_type_symbol
 _atom_site_label
 _atom_site_symmetry_multiplicity
 _atom_site_fract_x
 _atom_site_fract_y
 _atom_site_fract_z
 _atom_site_occupancy
  Ca2+  Ca0  4  0.26471800  0.05125000  0.75438400  1
  Ho3+  Ho1  2  0.00000000  0.00000000  0.00000000  1
  Ta5+  Ta2  2  0.50000000  0.00000000  0.50000000  1
  O2-  O3  4  0.15740000  0.03971300  0.26532900  1
  O2-  O4  4  0.26845800  0.68240300  0.05824500  1
  O2-  O5  4  0.38065600  0.20713600  0.05496900  1
