# generated using pymatgen
data_Ca2LaTaO6
_symmetry_space_group_name_H-M   Pc
_cell_length_a   5.66500872
_cell_length_b   5.91360324
_cell_length_c   9.92724505
_cell_angle_alpha   90.00000000
_cell_angle_beta   124.60523063
_cell_angle_gamma   90.00000000
_symmetry_Int_Tables_number   7
_chemical_formula_structural   Ca2LaTaO6
_chemical_formula_sum   'Ca4 La2 Ta2 O12'
_cell_volume   273.73223588
_cell_formula_units_Z   2
loop_
 _symmetry_equiv_pos_site_id
 _symmetry_equiv_pos_as_xyz
  1  'x, y, z'
  2  'x, -y, z+1/2'
loop_
 _atom_type_symbol
 _atom_type_oxidation_number
  Ca2+  2.0
  La3+  3.0
  Ta5+  5.0
  O2-  -2.0
loop_
 _atom_site_type_symbol
 _atom_site_label
 _atom_site_symmetry_multiplicity
 _atom_site_fract_x
 _atom_site_fract_y
 _atom_site_fract_z
 _atom_site_occupancy
  Ca2+  Ca0  2  0.50033815  0.24751780  0.49945543  1
  Ca2+  Ca1  2  0.72942819  0.19553325  0.24469900  1
  La3+  La2  2  0.26808173  0.30420548  0.75448420  1
  Ta5+  Ta3  2  0.00195791  0.24740656  0.00152842  1
  O2-  O4  2  0.11333977  0.29910045  0.22922671  1
  O2-  O5  2  0.24391177  0.03190031  0.56932399  1
  O2-  O6  2  0.33875181  0.42752895  0.05144953  1
  O2-  O7  2  0.66046881  0.07038780  0.94730877  1
  O2-  O8  2  0.75966925  0.47055557  0.43159780  1
  O2-  O9  2  0.88405261  0.19457768  0.77092616  1
