# generated using pymatgen
data_Ca2NdNbO6
_symmetry_space_group_name_H-M   Pc
_cell_length_a   5.66302420
_cell_length_b   5.95003400
_cell_length_c   9.97008479
_cell_angle_alpha   90.00000000
_cell_angle_beta   124.43732321
_cell_angle_gamma   90.00000000
_symmetry_Int_Tables_number   7
_chemical_formula_structural   Ca2NdNbO6
_chemical_formula_sum   'Ca4 Nd2 Nb2 O12'
_cell_volume   277.06812401
_cell_formula_units_Z   2
loop_
 _symmetry_equiv_pos_site_id
 _symmetry_equiv_pos_as_xyz
  1  'x, y, z'
  2  'x, -y, z+1/2'
loop_
 _atom_type_symbol
 _atom_type_oxidation_number
  Ca2+  2.0
  Nd3+  3.0
  Nb5+  5.0
  O2-  -2.0
loop_
 _atom_site_type_symbol
 _atom_site_label
 _atom_site_symmetry_multiplicity
 _atom_site_fract_x
 _atom_site_fract_y
 _atom_site_fract_z
 _atom_site_occupancy
  Ca2+  Ca0  2  0.50042000  0.24650700  0.49960900  1
  Ca2+  Ca1  2  0.73051000  0.19411500  0.24489600  1
  Nd3+  Nd2  2  0.27128900  0.30814200  0.75556000  1
  Nb5+  Nb3  2  0.00177900  0.24877300  0.00155600  1
  O2-  O4  2  0.11252300  0.30747600  0.23032500  1
  O2-  O5  2  0.24153200  0.03784800  0.57296500  1
  O2-  O6  2  0.34418300  0.42855600  0.05319300  1
  O2-  O7  2  0.65105200  0.07467100  0.94460600  1
  O2-  O8  2  0.75440100  0.46769200  0.42771600  1
  O2-  O9  2  0.89231000  0.19298000  0.76957400  1
