# generated using pymatgen
data_Ca2NbFeO6
_symmetry_space_group_name_H-M   P2_1/c
_cell_length_a   5.47652587
_cell_length_b   5.64751514
_cell_length_c   9.54561945
_cell_angle_alpha   90.00000000
_cell_angle_beta   124.81725778
_cell_angle_gamma   90.00000000
_symmetry_Int_Tables_number   14
_chemical_formula_structural   Ca2NbFeO6
_chemical_formula_sum   'Ca4 Nb2 Fe2 O12'
_cell_volume   242.38056700
_cell_formula_units_Z   2
loop_
 _symmetry_equiv_pos_site_id
 _symmetry_equiv_pos_as_xyz
  1  'x, y, z'
  2  '-x, -y, -z'
  3  '-x, y+1/2, -z+1/2'
  4  'x, -y+1/2, z+1/2'
loop_
 _atom_type_symbol
 _atom_type_oxidation_number
  Ca2+  2.0
  Nb5+  5.0
  Fe3+  3.0
  O2-  -2.0
loop_
 _atom_site_type_symbol
 _atom_site_label
 _atom_site_symmetry_multiplicity
 _atom_site_fract_x
 _atom_site_fract_y
 _atom_site_fract_z
 _atom_site_occupancy
  Ca2+  Ca0  4  0.23559751  0.05227127  0.74886796  1
  Nb5+  Nb1  2  0.50000000  0.00000000  0.50000000  1
  Fe3+  Fe2  2  0.00000000  0.00000000  0.00000000  1
  O2-  O3  4  0.15711262  0.20299215  0.45254702  1
  O2-  O4  4  0.24866897  0.70756886  0.45021835  1
  O2-  O5  4  0.34380414  0.02812345  0.25133022  1
