# generated using pymatgen
data_Ca2TaInO6
_symmetry_space_group_name_H-M   P2_1/c
_cell_length_a   5.57418000
_cell_length_b   5.77576500
_cell_length_c   9.76216109
_cell_angle_alpha   90.00000000
_cell_angle_beta   124.84861179
_cell_angle_gamma   90.00000000
_symmetry_Int_Tables_number   14
_chemical_formula_structural   Ca2TaInO6
_chemical_formula_sum   'Ca4 Ta2 In2 O12'
_cell_volume   257.93021864
_cell_formula_units_Z   2
loop_
 _symmetry_equiv_pos_site_id
 _symmetry_equiv_pos_as_xyz
  1  'x, y, z'
  2  '-x, -y, -z'
  3  '-x, y+1/2, -z+1/2'
  4  'x, -y+1/2, z+1/2'
loop_
 _atom_type_symbol
 _atom_type_oxidation_number
  Ca2+  2.0
  Ta5+  5.0
  In3+  3.0
  O2-  -2.0
loop_
 _atom_site_type_symbol
 _atom_site_label
 _atom_site_symmetry_multiplicity
 _atom_site_fract_x
 _atom_site_fract_y
 _atom_site_fract_z
 _atom_site_occupancy
  Ca2+  Ca0  4  0.26441400  0.05526200  0.74999400  1
  Ta5+  Ta1  2  0.50000000  0.00000000  0.50000000  1
  In3+  In2  2  0.00000000  0.00000000  0.00000000  1
  O2-  O3  4  0.15508700  0.03895700  0.26182100  1
  O2-  O4  4  0.26257900  0.68913600  0.05357300  1
  O2-  O5  4  0.37459600  0.21145500  0.05860000  1
