# generated using pymatgen
data_Ca2ZnSi2O7
_symmetry_space_group_name_H-M   P-42_1m
_cell_length_a   7.90614200
_cell_length_b   7.90614200
_cell_length_c   5.05938600
_cell_angle_alpha   90.00000000
_cell_angle_beta   90.00000000
_cell_angle_gamma   90.00000000
_symmetry_Int_Tables_number   113
_chemical_formula_structural   Ca2ZnSi2O7
_chemical_formula_sum   'Ca4 Zn2 Si4 O14'
_cell_volume   316.24745215
_cell_formula_units_Z   2
loop_
 _symmetry_equiv_pos_site_id
 _symmetry_equiv_pos_as_xyz
  1  'x, y, z'
  2  'y, -x, -z'
  3  '-x, -y, z'
  4  '-y, x, -z'
  5  'x+1/2, -y+1/2, -z'
  6  'y+1/2, x+1/2, z'
  7  '-x+1/2, y+1/2, -z'
  8  '-y+1/2, -x+1/2, z'
loop_
 _atom_type_symbol
 _atom_type_oxidation_number
  Ca2+  2.0
  Zn2+  2.0
  Si4+  4.0
  O2-  -2.0
loop_
 _atom_site_type_symbol
 _atom_site_label
 _atom_site_symmetry_multiplicity
 _atom_site_fract_x
 _atom_site_fract_y
 _atom_site_fract_z
 _atom_site_occupancy
  Ca2+  Ca0  4  0.16976900  0.66976900  0.50173800  1
  Zn2+  Zn1  2  0.00000000  0.00000000  0.00000000  1
  Si4+  Si2  4  0.14072300  0.35927700  0.06601800  1
  O2-  O3  8  0.08246400  0.18589100  0.22103200  1
  O2-  O4  4  0.14220500  0.35779500  0.74733200  1
  O2-  O5  2  0.00000000  0.50000000  0.18387600  1
