# generated using pymatgen
data_Ca3(PO4)2
_symmetry_space_group_name_H-M   P2_1/c
_cell_length_a   13.01476141
_cell_length_b   27.55326839
_cell_length_c   13.00589598
_cell_angle_alpha   90.00000000
_cell_angle_beta   107.62431569
_cell_angle_gamma   90.00000000
_symmetry_Int_Tables_number   14
_chemical_formula_structural   Ca3(PO4)2
_chemical_formula_sum   'Ca72 P48 O192'
_cell_volume   4444.99096061
_cell_formula_units_Z   24
loop_
 _symmetry_equiv_pos_site_id
 _symmetry_equiv_pos_as_xyz
  1  'x, y, z'
  2  '-x, -y, -z'
  3  '-x, y+1/2, -z+1/2'
  4  'x, -y+1/2, z+1/2'
loop_
 _atom_type_symbol
 _atom_type_oxidation_number
  Ca2+  2.0
  P5+  5.0
  O2-  -2.0
loop_
 _atom_site_type_symbol
 _atom_site_label
 _atom_site_symmetry_multiplicity
 _atom_site_fract_x
 _atom_site_fract_y
 _atom_site_fract_z
 _atom_site_occupancy
  Ca2+  Ca0  4  0.04918534  0.08665616  0.44617871  1
  Ca2+  Ca1  4  0.05034219  0.07329451  0.96221919  1
  Ca2+  Ca2  4  0.05603743  0.69145674  0.67689823  1
  Ca2+  Ca3  4  0.06271930  0.73469756  0.94783641  1
  Ca2+  Ca4  4  0.07283654  0.14837697  0.18201954  1
  Ca2+  Ca5  4  0.08590668  0.02590788  0.69423396  1
  Ca2+  Ca6  4  0.20022389  0.58543116  0.31825863  1
  Ca2+  Ca7  4  0.20801525  0.24530905  0.79488324  1
  Ca2+  Ca8  4  0.25454205  0.58709408  0.81089272  1
  Ca2+  Ca9  4  0.30668073  0.02633464  0.45656553  1
  Ca2+  Ca10  4  0.32336493  0.71563310  0.19434274  1
  Ca2+  Ca11  4  0.32400729  0.12744509  0.65156985  1
  Ca2+  Ca12  4  0.32430097  0.69807859  0.47173787  1
  Ca2+  Ca13  4  0.32778224  0.04958884  0.17932760  1
  Ca2+  Ca14  4  0.33221880  0.13833064  0.96330214  1
  Ca2+  Ca15  4  0.43803551  0.24120720  0.56892767  1
  Ca2+  Ca16  4  0.43839741  0.57548251  0.57778871  1
  Ca2+  Ca17  4  0.44020812  0.58935997  0.08288517  1
  P5+  P18  4  0.10082186  0.69180145  0.22587668  1
  P5+  P19  4  0.10219926  0.02499153  0.21354334  1
  P5+  P20  4  0.11126635  0.13685506  0.72328207  1
  P5+  P21  4  0.15569892  0.53946545  0.02945724  1
  P5+  P22  4  0.15654265  0.20822853  0.02098390  1
  P5+  P23  4  0.15752029  0.63226072  0.53063244  1
  P5+  P24  4  0.29939188  0.13668192  0.40464292  1
  P5+  P25  4  0.29999344  0.69204574  0.90856275  1
  P5+  P26  4  0.30022523  0.02935532  0.93789131  1
  P5+  P27  4  0.45584775  0.63126129  0.33541522  1
  P5+  P28  4  0.45722807  0.20357056  0.83051199  1
  P5+  P29  4  0.47553564  0.53532108  0.83794197  1
  O2-  O30  4  0.02965939  0.64674202  0.18443671  1
  O2-  O31  4  0.03166207  0.17962945  0.68351361  1
  O2-  O32  4  0.03235400  0.50743929  0.62420866  1
  O2-  O33  4  0.03620334  0.04037839  0.28958219  1
  O2-  O34  4  0.04425481  0.72359712  0.29034784  1
  O2-  O35  4  0.05743303  0.55937651  0.94009474  1
  O2-  O36  4  0.06474568  0.10044887  0.78759991  1
  O2-  O37  4  0.08031326  0.60794803  0.42775444  1
  O2-  O38  4  0.10131441  0.23603534  0.91442409  1
  O2-  O39  4  0.10940821  0.15565356  0.00898871  1
  O2-  O40  4  0.12296538  0.23143688  0.11576077  1
  O2-  O41  4  0.12439189  0.72316673  0.13605591  1
  O2-  O42  4  0.12950574  0.61266423  0.63094084  1
  O2-  O43  4  0.13915089  0.10956293  0.63042430  1
  O2-  O44  4  0.14029409  0.07069754  0.16268787  1
  O2-  O45  4  0.14068215  0.68863577  0.52710336  1
  O2-  O46  4  0.14423125  0.55685549  0.13933350  1
  O2-  O47  4  0.15441953  0.01724802  0.53175085  1
  O2-  O48  4  0.20391679  0.67386405  0.81397728  1
  O2-  O49  4  0.20985931  0.50117507  0.77882005  1
  O2-  O50  4  0.21393630  0.67434561  0.29870954  1
  O2-  O51  4  0.22105923  0.15921359  0.79224812  1
  O2-  O52  4  0.22143462  0.50146249  0.34817708  1
  O2-  O53  4  0.22413935  0.10558900  0.45275802  1
  O2-  O54  4  0.23174749  0.16982790  0.31260436  1
  O2-  O55  4  0.23553895  0.06640728  0.98687615  1
  O2-  O56  4  0.25526773  0.71827525  0.99387224  1
  O2-  O57  4  0.26132884  0.55528137  0.00782190  1
  O2-  O58  4  0.27440596  0.62209186  0.53127339  1
  O2-  O59  4  0.27939114  0.20799163  0.04270481  1
  O2-  O60  4  0.36280343  0.50214552  0.53503750  1
  O2-  O61  4  0.36524318  0.73193933  0.86944094  1
  O2-  O62  4  0.36735527  0.09886886  0.36348740  1
  O2-  O63  4  0.36887943  0.64728121  0.95376002  1
  O2-  O64  4  0.36980427  0.16698738  0.50029507  1
  O2-  O65  4  0.37570222  0.06067311  0.89261284  1
  O2-  O66  4  0.38661555  0.60001953  0.38842460  1
  O2-  O67  4  0.38942391  0.22980870  0.89367930  1
  O2-  O68  4  0.39399207  0.20600377  0.70875457  1
  O2-  O69  4  0.39932549  0.63674915  0.21198782  1
  O2-  O70  4  0.40089045  0.56392605  0.74082727  1
  O2-  O71  4  0.40957112  0.05764530  0.62443965  1
  O2-  O72  4  0.42215680  0.53959100  0.93020708  1
  O2-  O73  4  0.42966822  0.11011236  0.13907269  1
  O2-  O74  4  0.42995465  0.72742333  0.64364884  1
  O2-  O75  4  0.46414332  0.68375718  0.38447265  1
  O2-  O76  4  0.46864859  0.14945569  0.86581602  1
  O2-  O77  4  0.48118985  0.01909346  0.31012958  1
