# generated using pymatgen
data_Ca3Si2SnO9
_symmetry_space_group_name_H-M   P2_1/c
_cell_length_a   7.41559400
_cell_length_b   10.20129000
_cell_length_c   10.53477628
_cell_angle_alpha   90.00000000
_cell_angle_beta   91.19631332
_cell_angle_gamma   90.00000000
_symmetry_Int_Tables_number   14
_chemical_formula_structural   Ca3Si2SnO9
_chemical_formula_sum   'Ca12 Si8 Sn4 O36'
_cell_volume   796.76762896
_cell_formula_units_Z   4
loop_
 _symmetry_equiv_pos_site_id
 _symmetry_equiv_pos_as_xyz
  1  'x, y, z'
  2  '-x, -y, -z'
  3  '-x, y+1/2, -z+1/2'
  4  'x, -y+1/2, z+1/2'
loop_
 _atom_type_symbol
 _atom_type_oxidation_number
  Ca2+  2.0
  Si4+  4.0
  Sn4+  4.0
  O2-  -2.0
loop_
 _atom_site_type_symbol
 _atom_site_label
 _atom_site_symmetry_multiplicity
 _atom_site_fract_x
 _atom_site_fract_y
 _atom_site_fract_z
 _atom_site_occupancy
  Ca2+  Ca0  4  0.11935600  0.16665300  0.58351300  1
  Ca2+  Ca1  4  0.36382600  0.07932400  0.88867600  1
  Ca2+  Ca2  4  0.37188100  0.69572600  0.90436400  1
  Si4+  Si3  4  0.16701700  0.62548500  0.18415700  1
  Si4+  Si4  4  0.40117900  0.13677700  0.30528300  1
  Sn4+  Sn5  4  0.12021300  0.55847600  0.61790400  1
  O2-  O6  4  0.08416200  0.00236300  0.75750100  1
  O2-  O7  4  0.09089500  0.11672100  0.00828400  1
  O2-  O8  4  0.10361900  0.73124400  0.73902800  1
  O2-  O9  4  0.14424600  0.60914500  0.03250000  1
  O2-  O10  4  0.30445100  0.50101300  0.76322800  1
  O2-  O11  4  0.34086100  0.60848700  0.51728400  1
  O2-  O12  4  0.35462800  0.23319000  0.72049800  1
  O2-  O13  4  0.38059400  0.16897500  0.45493400  1
  O2-  O14  4  0.38278400  0.60725600  0.23048000  1
