# generated using pymatgen
data_Ca3Ti2O7
_symmetry_space_group_name_H-M   Cmc2_1
_cell_length_a   19.44292550
_cell_length_b   5.41577882
_cell_length_c   5.45650973
_cell_angle_alpha   90.00000000
_cell_angle_beta   90.00000000
_cell_angle_gamma   90.00000000
_symmetry_Int_Tables_number   36
_chemical_formula_structural   Ca3Ti2O7
_chemical_formula_sum   'Ca12 Ti8 O28'
_cell_volume   574.56274882
_cell_formula_units_Z   4
loop_
 _symmetry_equiv_pos_site_id
 _symmetry_equiv_pos_as_xyz
  1  'x, y, z'
  2  '-x, -y, z+1/2'
  3  '-x, y, z'
  4  'x, -y, z+1/2'
  5  'x+1/2, y+1/2, z'
  6  '-x+1/2, -y+1/2, z+1/2'
  7  '-x+1/2, y+1/2, z'
  8  'x+1/2, -y+1/2, z+1/2'
loop_
 _atom_type_symbol
 _atom_type_oxidation_number
  Ca2+  2.0
  Ti4+  4.0
  O2-  -2.0
loop_
 _atom_site_type_symbol
 _atom_site_label
 _atom_site_symmetry_multiplicity
 _atom_site_fract_x
 _atom_site_fract_y
 _atom_site_fract_z
 _atom_site_occupancy
  Ca2+  Ca0  8  0.18748336  0.25830081  0.46287716  1
  Ca2+  Ca1  4  0.00000000  0.25419545  0.53841354  1
  Ti4+  Ti2  8  0.09952225  0.24983274  0.99591488  1
  O2-  O3  8  0.08429873  0.46143584  0.29161137  1
  O2-  O4  8  0.11187558  0.03912085  0.71352369  1
  O2-  O5  8  0.19758420  0.31300514  0.01990600  1
  O2-  O6  4  0.00000000  0.17890356  0.98552126  1
