# generated using pymatgen
data_Ca3WO6
_symmetry_space_group_name_H-M   P2_1/c
_cell_length_a   5.60329100
_cell_length_b   5.87336100
_cell_length_c   9.83542972
_cell_angle_alpha   90.00000000
_cell_angle_beta   124.25128749
_cell_angle_gamma   90.00000000
_symmetry_Int_Tables_number   14
_chemical_formula_structural   Ca3WO6
_chemical_formula_sum   'Ca6 W2 O12'
_cell_volume   267.55100253
_cell_formula_units_Z   2
loop_
 _symmetry_equiv_pos_site_id
 _symmetry_equiv_pos_as_xyz
  1  'x, y, z'
  2  '-x, -y, -z'
  3  '-x, y+1/2, -z+1/2'
  4  'x, -y+1/2, z+1/2'
loop_
 _atom_type_symbol
 _atom_type_oxidation_number
  Ca2+  2.0
  W6+  6.0
  O2-  -2.0
loop_
 _atom_site_type_symbol
 _atom_site_label
 _atom_site_symmetry_multiplicity
 _atom_site_fract_x
 _atom_site_fract_y
 _atom_site_fract_z
 _atom_site_occupancy
  Ca2+  Ca0  4  0.27423600  0.05538900  0.25840300  1
  Ca2+  Ca1  2  0.50000000  0.00000000  0.00000000  1
  W6+  W2  2  0.00000000  0.00000000  0.50000000  1
  O2-  O3  4  0.10783700  0.05845700  0.72496500  1
  O2-  O4  4  0.24369700  0.72494800  0.57466400  1
  O2-  O5  4  0.33498100  0.17601700  0.55001300  1
