# generated using pymatgen
data_CaAl4O7
_symmetry_space_group_name_H-M   C2/c
_cell_length_a   12.84535745
_cell_length_b   8.88246288
_cell_length_c   5.45018699
_cell_angle_alpha   90.00000000
_cell_angle_beta   106.46891413
_cell_angle_gamma   90.00000000
_symmetry_Int_Tables_number   15
_chemical_formula_structural   CaAl4O7
_chemical_formula_sum   'Ca4 Al16 O28'
_cell_volume   596.34514625
_cell_formula_units_Z   4
loop_
 _symmetry_equiv_pos_site_id
 _symmetry_equiv_pos_as_xyz
  1  'x, y, z'
  2  '-x, -y, -z'
  3  '-x, y, -z+1/2'
  4  'x, -y, z+1/2'
  5  'x+1/2, y+1/2, z'
  6  '-x+1/2, -y+1/2, -z'
  7  '-x+1/2, y+1/2, -z+1/2'
  8  'x+1/2, -y+1/2, z+1/2'
loop_
 _atom_type_symbol
 _atom_type_oxidation_number
  Ca2+  2.0
  Al3+  3.0
  O2-  -2.0
loop_
 _atom_site_type_symbol
 _atom_site_label
 _atom_site_symmetry_multiplicity
 _atom_site_fract_x
 _atom_site_fract_y
 _atom_site_fract_z
 _atom_site_occupancy
  Ca2+  Ca0  4  0.00000000  0.19404417  0.75000000  1
  Al3+  Al1  8  0.12054829  0.44049362  0.24482135  1
  Al3+  Al2  8  0.16327447  0.08595196  0.30433053  1
  O2-  O3  8  0.11541187  0.05318884  0.56952073  1
  O2-  O4  8  0.11887542  0.25486167  0.15045053  1
  O2-  O5  8  0.19294447  0.44402846  0.58080710  1
  O2-  O6  4  0.00000000  0.46834141  0.75000000  1
