#### CIF created by Crystallographica 2 ####

data_CalciumIronNiobiumOxide

_audit_creation_method                    'Crystallographica 2' 
_cell_angle_alpha                         90 
_cell_angle_beta                          90.11 
_cell_angle_gamma                         90 
_cell_formula_units_Z                     4 
_cell_length_a                            5.448 
_cell_length_b                            5.5517 
_cell_length_c                            7.7612 
_cell_volume                              234.742 
_cgraph_comments                         'A structural study of the perosvskite series Ca Ti(1-2x) 
     Fe(x) Nb(x) O3
'
_cgraph_title                            'Calcium Iron Niobium Oxide (1/0.5/0.5/3)'
_chemical_formula_sum                    'Ca ((Fe0.5 Nb0.5) O3)'
_symmetry_space_group_name_H-M           'P 21/c'
_symmetry_space_group_name_Hall          '-P 2yn'

loop_
        _symmetry_equiv_pos_as_xyz
        'x, y, z'
        '-x, -y, -z'
        '-x+1/2, y+1/2, -z+1/2'
        'x+1/2, -y+1/2, z+1/2'

loop_
        _atom_site_label
        _atom_site_type_symbol
        _atom_site_fract_x
        _atom_site_fract_y
        _atom_site_fract_z
        _atom_site_U_iso_or_equiv
        _atom_site_thermal_displace_type
        _atom_site_occupancy
        Ca1 Ca2+ 0.507 0.5438 0.254 0.0159581 Uiso 1
        Fe1 Fe3+ 0 0.5 0 0.00949886 Uiso 0.66
        Nb1 Nb5+ 0 0.5 0 0.00949886 Uiso 0.34
        Fe2 Fe3+ 0.5 0 0 0.00949886 Uiso 0.34
        Nb2 Nb5+ 0.5 0 0 0.00949886 Uiso 0.66
        O1 O2- 0.2 0.224 -0.057 0.0088656 Uiso 1
        O2 O2- 0.292 0.684 -0.033 0.0126651 Uiso 1
        O3 O2- 0.427 0.978 0.256 0.00759909 Uiso 1

_eof

#### End of Crystallographic Information File ####
