# generated using pymatgen
data_CaLa4Si3O13
_symmetry_space_group_name_H-M   P6_3
_cell_length_a   9.73568371
_cell_length_b   9.73568371
_cell_length_c   7.18651900
_cell_angle_alpha   90.00000000
_cell_angle_beta   90.00000000
_cell_angle_gamma   120.00000000
_symmetry_Int_Tables_number   173
_chemical_formula_structural   CaLa4Si3O13
_chemical_formula_sum   'Ca2 La8 Si6 O26'
_cell_volume   589.90506128
_cell_formula_units_Z   2
loop_
 _symmetry_equiv_pos_site_id
 _symmetry_equiv_pos_as_xyz
  1  'x, y, z'
  2  'x-y, x, z+1/2'
  3  '-y, x-y, z'
  4  '-x, -y, z+1/2'
  5  '-x+y, -x, z'
  6  'y, -x+y, z+1/2'
loop_
 _atom_type_symbol
 _atom_type_oxidation_number
  Ca2+  2.0
  La3+  3.0
  Si4+  4.0
  O2-  -2.0
loop_
 _atom_site_type_symbol
 _atom_site_label
 _atom_site_symmetry_multiplicity
 _atom_site_fract_x
 _atom_site_fract_y
 _atom_site_fract_z
 _atom_site_occupancy
  Ca2+  Ca0  2  0.33333333  0.66666667  0.99922800  1
  La3+  La1  6  0.01065500  0.24371000  0.75047800  1
  La3+  La2  2  0.33333333  0.66666667  0.50030000  1
  Si4+  Si3  6  0.02999200  0.40289600  0.24867800  1
  O2-  O4  6  0.08585700  0.33864900  0.06820200  1
  O2-  O5  6  0.08902500  0.34352300  0.43246200  1
  O2-  O6  6  0.12820800  0.59759000  0.24953000  1
  O2-  O7  6  0.16307200  0.67226000  0.75057000  1
  O2-  O8  2  0.00000000  0.00000000  0.25073600  1
