#### CIF created by Crystallographica 2 ####

data_DicalciumNeodymiumNiobiumOxide

_audit_creation_method                    'Crystallographica 2' 
_cell_angle_alpha                         90 
_cell_angle_beta                          90.2 
_cell_angle_gamma                         90 
_cell_formula_units_Z                     2 
_cell_length_a                            5.615 
_cell_length_b                            5.877 
_cell_length_c                            8.114 
_cell_volume                              267.755 
_cgraph_comments                         'Study of calcium rare earth niobium oxide (Ca2 RE Nb O6)
'
_cgraph_title                            'Dicalcium Neodymium Niobium Oxide'
_chemical_formula_sum                    'Ca2 Nd Nb O6'
_symmetry_space_group_name_H-M           'P 21/c'
_symmetry_space_group_name_Hall          '-P 2yn'

loop_
        _symmetry_equiv_pos_as_xyz
        'x, y, z'
        '-x, -y, -z'
        '-x+1/2, y+1/2, -z+1/2'
        'x+1/2, -y+1/2, z+1/2'

loop_
        _atom_site_label
        _atom_site_type_symbol
        _atom_site_fract_x
        _atom_site_fract_y
        _atom_site_fract_z
        _atom_site_U_iso_or_equiv
        _atom_site_thermal_displace_type
        _atom_site_occupancy
        Nb1 Nb5+ 0 0 0 0 Uiso 1
        Ca1 Ca2+ 0.5 0.5 0 0 Uiso 1
        Ca2 Ca2+ -0.014 0.4422 0.2537 0 Uiso 0.5
        Nd1 Nd3+ -0.014 0.4422 0.2537 0 Uiso 0.5
        O1 O2- 0.7103 0.1761 0.0525 0 Uiso 1
        O2 O2- 0.6701 0.2163 0.4289 0 Uiso 1
        O3 O2- 0.1162 0.056 0.2293 0 Uiso 1

_eof

#### End of Crystallographic Information File ####
