# generated using pymatgen
data_CaSiSnO5
_symmetry_space_group_name_H-M   C2/c
_cell_length_a   6.79531400
_cell_length_b   8.99608800
_cell_length_c   7.26657637
_cell_angle_alpha   90.00000000
_cell_angle_beta   113.62434594
_cell_angle_gamma   90.00000000
_symmetry_Int_Tables_number   15
_chemical_formula_structural   CaSiSnO5
_chemical_formula_sum   'Ca4 Si4 Sn4 O20'
_cell_volume   406.98632238
_cell_formula_units_Z   4
loop_
 _symmetry_equiv_pos_site_id
 _symmetry_equiv_pos_as_xyz
  1  'x, y, z'
  2  '-x, -y, -z'
  3  '-x, y, -z+1/2'
  4  'x, -y, z+1/2'
  5  'x+1/2, y+1/2, z'
  6  '-x+1/2, -y+1/2, -z'
  7  '-x+1/2, y+1/2, -z+1/2'
  8  'x+1/2, -y+1/2, z+1/2'
loop_
 _atom_type_symbol
 _atom_type_oxidation_number
  Ca2+  2.0
  Si4+  4.0
  Sn4+  4.0
  O2-  -2.0
loop_
 _atom_site_type_symbol
 _atom_site_label
 _atom_site_symmetry_multiplicity
 _atom_site_fract_x
 _atom_site_fract_y
 _atom_site_fract_z
 _atom_site_occupancy
  Ca2+  Ca0  4  0.00000000  0.16292400  0.25000000  1
  Si4+  Si1  4  0.00000000  0.18098200  0.75000000  1
  Sn4+  Sn2  4  0.00000000  0.50000000  0.00000000  1
  O2-  O3  8  0.10892500  0.28610700  0.62802600  1
  O2-  O4  8  0.17446850  0.06558250  0.91090200  1
  O2-  O5  4  0.00000000  0.41138700  0.25000000  1
