# generated using pymatgen
data_CaV2O6
_symmetry_space_group_name_H-M   C2/m
_cell_length_a   10.05261252
_cell_length_b   3.64334578
_cell_length_c   7.13805323
_cell_angle_alpha   90.00000000
_cell_angle_beta   104.04733187
_cell_angle_gamma   90.00000000
_symmetry_Int_Tables_number   12
_chemical_formula_structural   CaV2O6
_chemical_formula_sum   'Ca2 V4 O12'
_cell_volume   253.61423491
_cell_formula_units_Z   2
loop_
 _symmetry_equiv_pos_site_id
 _symmetry_equiv_pos_as_xyz
  1  'x, y, z'
  2  '-x, -y, -z'
  3  '-x, y, -z'
  4  'x, -y, z'
  5  'x+1/2, y+1/2, z'
  6  '-x+1/2, -y+1/2, -z'
  7  '-x+1/2, y+1/2, -z'
  8  'x+1/2, -y+1/2, z'
loop_
 _atom_type_symbol
 _atom_type_oxidation_number
  Ca2+  2.0
  V5+  5.0
  O2-  -2.0
loop_
 _atom_site_type_symbol
 _atom_site_label
 _atom_site_symmetry_multiplicity
 _atom_site_fract_x
 _atom_site_fract_y
 _atom_site_fract_z
 _atom_site_occupancy
  Ca2+  Ca0  2  0.00000000  0.00000000  0.00000000  1
  V5+  V1  4  0.23270915  0.00000000  0.66953380  1
  O2-  O2  4  0.08318355  0.00000000  0.72296589  1
  O2-  O3  4  0.14331097  0.50000000  0.12311070  1
  O2-  O4  4  0.24984989  0.00000000  0.39776354  1
