# generated using pymatgen
data_Ce2(WO4)3
_symmetry_space_group_name_H-M   C2/c
_cell_length_a   7.99074600
_cell_length_b   11.83511400
_cell_length_c   11.74061780
_cell_angle_alpha   90.00000000
_cell_angle_beta   109.77423183
_cell_angle_gamma   90.00000000
_symmetry_Int_Tables_number   15
_chemical_formula_structural   Ce2(WO4)3
_chemical_formula_sum   'Ce8 W12 O48'
_cell_volume   1044.85393768
_cell_formula_units_Z   4
loop_
 _symmetry_equiv_pos_site_id
 _symmetry_equiv_pos_as_xyz
  1  'x, y, z'
  2  '-x, -y, -z'
  3  '-x, y, -z+1/2'
  4  'x, -y, z+1/2'
  5  'x+1/2, y+1/2, z'
  6  '-x+1/2, -y+1/2, -z'
  7  '-x+1/2, y+1/2, -z+1/2'
  8  'x+1/2, -y+1/2, z+1/2'
loop_
 _atom_type_symbol
 _atom_type_oxidation_number
  Ce3+  3.0
  W6+  6.0
  O2-  -2.0
loop_
 _atom_site_type_symbol
 _atom_site_label
 _atom_site_symmetry_multiplicity
 _atom_site_fract_x
 _atom_site_fract_y
 _atom_site_fract_z
 _atom_site_occupancy
  Ce3+  Ce0  8  0.16522550  0.12267450  0.59487300  1
  W6+  W1  8  0.14381700  0.39656200  0.04647700  1
  W6+  W2  4  0.00000000  0.13435800  0.25000000  1
  O2-  O3  8  0.05455300  0.28572800  0.94036100  1
  O2-  O4  8  0.06587700  0.46224800  0.42903600  1
  O2-  O5  8  0.12790100  0.20982200  0.39060900  1
  O2-  O6  8  0.13644550  0.05208950  0.96037000  1
  O2-  O7  8  0.16156000  0.04534300  0.21887400  1
  O2-  O8  8  0.21733400  0.32810200  0.19560500  1
