# generated using pymatgen
data_CeTaTiO6
_symmetry_space_group_name_H-M   Pna2_1
_cell_length_a   11.15673900
_cell_length_b   5.36751400
_cell_length_c   7.58220800
_cell_angle_alpha   90.00000000
_cell_angle_beta   90.00000000
_cell_angle_gamma   90.00000000
_symmetry_Int_Tables_number   33
_chemical_formula_structural   CeTaTiO6
_chemical_formula_sum   'Ce4 Ta4 Ti4 O24'
_cell_volume   454.05258582
_cell_formula_units_Z   4
loop_
 _symmetry_equiv_pos_site_id
 _symmetry_equiv_pos_as_xyz
  1  'x, y, z'
  2  '-x, -y, z+1/2'
  3  '-x+1/2, y+1/2, z+1/2'
  4  'x+1/2, -y+1/2, z'
loop_
 _atom_type_symbol
 _atom_type_oxidation_number
  Ce3+  3.0
  Ta5+  5.0
  Ti4+  4.0
  O2-  -2.0
loop_
 _atom_site_type_symbol
 _atom_site_label
 _atom_site_symmetry_multiplicity
 _atom_site_fract_x
 _atom_site_fract_y
 _atom_site_fract_z
 _atom_site_occupancy
  Ce3+  Ce0  4  0.04272500  0.54716300  0.24846300  1
  Ta5+  Ta1  4  0.14440400  0.04009500  0.50581200  1
  Ti4+  Ti2  4  0.14234800  0.03617700  0.99416500  1
  O2-  O3  4  0.02436100  0.76611000  0.96248200  1
  O2-  O4  4  0.02695500  0.76277300  0.53776300  1
  O2-  O5  4  0.11965100  0.15807000  0.75138700  1
  O2-  O6  4  0.14269600  0.94778500  0.24941000  1
  O2-  O7  4  0.20978500  0.37238300  0.05992100  1
  O2-  O8  4  0.21219300  0.37652900  0.44059800  1
