# generated using pymatgen
data_Nb2CuO6
_symmetry_space_group_name_H-M   Pbcn
_cell_length_a   14.35923000
_cell_length_b   5.67929100
_cell_length_c   5.24710100
_cell_angle_alpha   90.00000000
_cell_angle_beta   90.00000000
_cell_angle_gamma   90.00000000
_symmetry_Int_Tables_number   60
_chemical_formula_structural   Nb2CuO6
_chemical_formula_sum   'Nb8 Cu4 O24'
_cell_volume   427.90237579
_cell_formula_units_Z   4
loop_
 _symmetry_equiv_pos_site_id
 _symmetry_equiv_pos_as_xyz
  1  'x, y, z'
  2  '-x, -y, -z'
  3  '-x+1/2, -y+1/2, z+1/2'
  4  'x+1/2, y+1/2, -z+1/2'
  5  'x+1/2, -y+1/2, -z'
  6  '-x+1/2, y+1/2, z'
  7  '-x, y, -z+1/2'
  8  'x, -y, z+1/2'
loop_
 _atom_type_symbol
 _atom_type_oxidation_number
  Nb5+  5.0
  Cu2+  2.0
  O2-  -2.0
loop_
 _atom_site_type_symbol
 _atom_site_label
 _atom_site_symmetry_multiplicity
 _atom_site_fract_x
 _atom_site_fract_y
 _atom_site_fract_z
 _atom_site_occupancy
  Nb5+  Nb0  8  0.16011700  0.31633700  0.29803500  1
  Cu2+  Cu1  4  0.00000000  0.17094600  0.75000000  1
  O2-  O2  8  0.08544100  0.08592100  0.17317500  1
  O2-  O3  8  0.09212800  0.39960600  0.61528900  1
  O2-  O4  8  0.24001600  0.36624100  0.97123900  1
