# generated using pymatgen
data_ErAlO3
_symmetry_space_group_name_H-M   Pnma
_cell_length_a   5.31641715
_cell_length_b   7.32664956
_cell_length_c   5.11890551
_cell_angle_alpha   90.00000000
_cell_angle_beta   90.00000000
_cell_angle_gamma   90.00000000
_symmetry_Int_Tables_number   62
_chemical_formula_structural   ErAlO3
_chemical_formula_sum   'Er4 Al4 O12'
_cell_volume   199.38917785
_cell_formula_units_Z   4
loop_
 _symmetry_equiv_pos_site_id
 _symmetry_equiv_pos_as_xyz
  1  'x, y, z'
  2  '-x, -y, -z'
  3  '-x+1/2, -y, z+1/2'
  4  'x+1/2, y, -z+1/2'
  5  'x+1/2, -y+1/2, -z+1/2'
  6  '-x+1/2, y+1/2, z+1/2'
  7  '-x, y+1/2, -z'
  8  'x, -y+1/2, z'
loop_
 _atom_type_symbol
 _atom_type_oxidation_number
  Er3+  3.0
  Al3+  3.0
  O2-  -2.0
loop_
 _atom_site_type_symbol
 _atom_site_label
 _atom_site_symmetry_multiplicity
 _atom_site_fract_x
 _atom_site_fract_y
 _atom_site_fract_z
 _atom_site_occupancy
  Er3+  Er0  4  0.05866139  0.25000000  0.98551250  1
  Al3+  Al1  4  0.00000000  0.00000000  0.50000000  1
  O2-  O2  8  0.20380367  0.54789866  0.20267311  1
  O2-  O3  4  0.02567039  0.75000000  0.59156526  1
