# generated using pymatgen
data_K2Mo3O10
_symmetry_space_group_name_H-M   C2/c
_cell_length_a   13.93850849
_cell_length_b   7.90193704
_cell_length_c   8.90453807
_cell_angle_alpha   90.00000000
_cell_angle_beta   99.03692427
_cell_angle_gamma   90.00000000
_symmetry_Int_Tables_number   15
_chemical_formula_structural   K2Mo3O10
_chemical_formula_sum   'K8 Mo12 O40'
_cell_volume   968.58283885
_cell_formula_units_Z   4
loop_
 _symmetry_equiv_pos_site_id
 _symmetry_equiv_pos_as_xyz
  1  'x, y, z'
  2  '-x, -y, -z'
  3  '-x, y, -z+1/2'
  4  'x, -y, z+1/2'
  5  'x+1/2, y+1/2, z'
  6  '-x+1/2, -y+1/2, -z'
  7  '-x+1/2, y+1/2, -z+1/2'
  8  'x+1/2, -y+1/2, z+1/2'
loop_
 _atom_type_symbol
 _atom_type_oxidation_number
  K+  1.0
  Mo6+  6.0
  O2-  -2.0
loop_
 _atom_site_type_symbol
 _atom_site_label
 _atom_site_symmetry_multiplicity
 _atom_site_fract_x
 _atom_site_fract_y
 _atom_site_fract_z
 _atom_site_occupancy
  K+  K0  8  0.18514078  0.40797913  0.65673909  1
  Mo6+  Mo1  8  0.10941267  0.07767258  0.01886034  1
  Mo6+  Mo2  4  0.00000000  0.30515623  0.25000000  1
  O2-  O3  8  0.02560614  0.09140648  0.41097407  1
  O2-  O4  8  0.05528812  0.43905642  0.38728881  1
  O2-  O5  8  0.12179571  0.24218480  0.17818095  1
  O2-  O6  8  0.13741667  0.19124739  0.86861001  1
  O2-  O7  8  0.20699671  0.05230272  0.58118188  1
