# generated using pymatgen
data_KLiSm2(MoO4)4
_symmetry_space_group_name_H-M   C2/c
_cell_length_a   5.35079600
_cell_length_b   12.95874000
_cell_length_c   19.75324598
_cell_angle_alpha   90.00000000
_cell_angle_beta   92.93879104
_cell_angle_gamma   90.00000000
_symmetry_Int_Tables_number   15
_chemical_formula_structural   KLiSm2(MoO4)4
_chemical_formula_sum   'K4 Li4 Sm8 Mo16 O64'
_cell_volume   1367.88036240
_cell_formula_units_Z   4
loop_
 _symmetry_equiv_pos_site_id
 _symmetry_equiv_pos_as_xyz
  1  'x, y, z'
  2  '-x, -y, -z'
  3  '-x, y, -z+1/2'
  4  'x, -y, z+1/2'
  5  'x+1/2, y+1/2, z'
  6  '-x+1/2, -y+1/2, -z'
  7  '-x+1/2, y+1/2, -z+1/2'
  8  'x+1/2, -y+1/2, z+1/2'
loop_
 _atom_type_symbol
 _atom_type_oxidation_number
  K+  1.0
  Li+  1.0
  Sm3+  3.0
  Mo6+  6.0
  O2-  -2.0
loop_
 _atom_site_type_symbol
 _atom_site_label
 _atom_site_symmetry_multiplicity
 _atom_site_fract_x
 _atom_site_fract_y
 _atom_site_fract_z
 _atom_site_occupancy
  K+  K0  4  0.00000000  0.46879100  0.75000000  1
  Li+  Li1  4  0.00000000  0.18640700  0.75000000  1
  Sm3+  Sm2  8  0.00055250  0.35337850  0.96691100  1
  Mo6+  Mo3  8  0.00981650  0.24288950  0.14900700  1
  Mo6+  Mo4  8  0.01815800  0.06242400  0.59215300  1
  O2-  O5  8  0.10598250  0.09202350  0.82929500  1
  O2-  O6  8  0.12764650  0.35997050  0.32618000  1
  O2-  O7  8  0.15866200  0.16901000  0.54338400  1
  O2-  O8  8  0.17151750  0.25957250  0.06771000  1
  O2-  O9  8  0.23159350  0.04344050  0.10207300  1
  O2-  O10  8  0.23200850  0.20428650  0.21367400  1
  O2-  O11  8  0.24421850  0.15145650  0.36616800  1
  O2-  O12  8  0.24555900  0.48042700  0.03807400  1
