# generated using pymatgen
data_La2TiCoO6
_symmetry_space_group_name_H-M   P2_1/c
_cell_length_a   5.57946593
_cell_length_b   5.69624407
_cell_length_c   9.69649407
_cell_angle_alpha   90.00000000
_cell_angle_beta   125.12565680
_cell_angle_gamma   90.00000000
_symmetry_Int_Tables_number   14
_chemical_formula_structural   La2TiCoO6
_chemical_formula_sum   'La4 Ti2 Co2 O12'
_cell_volume   252.05307266
_cell_formula_units_Z   2
loop_
 _symmetry_equiv_pos_site_id
 _symmetry_equiv_pos_as_xyz
  1  'x, y, z'
  2  '-x, -y, -z'
  3  '-x, y+1/2, -z+1/2'
  4  'x, -y+1/2, z+1/2'
loop_
 _atom_type_symbol
 _atom_type_oxidation_number
  La3+  3.0
  Ti4+  4.0
  Co2+  2.0
  O2-  -2.0
loop_
 _atom_site_type_symbol
 _atom_site_label
 _atom_site_symmetry_multiplicity
 _atom_site_fract_x
 _atom_site_fract_y
 _atom_site_fract_z
 _atom_site_occupancy
  La3+  La0  4  0.25973100  0.04674800  0.74889000  1
  Ti4+  Ti1  2  0.50000000  0.00000000  0.50000000  1
  Co2+  Co2  2  0.00000000  0.00000000  0.00000000  1
  O2-  O3  4  0.17218000  0.02486350  0.25844300  1
  O2-  O4  4  0.26041500  0.69985950  0.04392900  1
  O2-  O5  4  0.34980100  0.21720050  0.04775900  1
