# generated using pymatgen
data_La2TiZnO6
_symmetry_space_group_name_H-M   P2_1/c
_cell_length_a   5.60179600
_cell_length_b   5.70671000
_cell_length_c   9.73581197
_cell_angle_alpha   90.00000000
_cell_angle_beta   125.18359093
_cell_angle_gamma   90.00000000
_symmetry_Int_Tables_number   14
_chemical_formula_structural   La2TiZnO6
_chemical_formula_sum   'La4 Ti2 Zn2 O12'
_cell_volume   254.37361186
_cell_formula_units_Z   2
loop_
 _symmetry_equiv_pos_site_id
 _symmetry_equiv_pos_as_xyz
  1  'x, y, z'
  2  '-x, -y, -z'
  3  '-x, y+1/2, -z+1/2'
  4  'x, -y+1/2, z+1/2'
loop_
 _atom_type_symbol
 _atom_type_oxidation_number
  La3+  3.0
  Ti4+  4.0
  Zn2+  2.0
  O2-  -2.0
loop_
 _atom_site_type_symbol
 _atom_site_label
 _atom_site_symmetry_multiplicity
 _atom_site_fract_x
 _atom_site_fract_y
 _atom_site_fract_z
 _atom_site_occupancy
  La3+  La0  4  0.23911900  0.04470300  0.24910500  1
  Ti4+  Ti1  2  0.50000000  0.00000000  0.00000000  1
  Zn2+  Zn2  2  0.00000000  0.00000000  0.50000000  1
  O2-  O3  4  0.17211000  0.19806800  0.95391400  1
  O2-  O4  4  0.25371700  0.71694600  0.95043000  1
  O2-  O5  4  0.34987900  0.02606200  0.76007000  1
