# generated using pymatgen
data_La3Mg2TaO9
_symmetry_space_group_name_H-M   P2_1/c
_cell_length_a   8.02782400
_cell_length_b   5.72739000
_cell_length_c   18.72202030
_cell_angle_alpha   90.00000000
_cell_angle_beta   115.42444470
_cell_angle_gamma   90.00000000
_symmetry_Int_Tables_number   14
_chemical_formula_structural   La3Mg2TaO9
_chemical_formula_sum   'La12 Mg8 Ta4 O36'
_cell_volume   777.44246728
_cell_formula_units_Z   4
loop_
 _symmetry_equiv_pos_site_id
 _symmetry_equiv_pos_as_xyz
  1  'x, y, z'
  2  '-x, -y, -z'
  3  '-x, y+1/2, -z+1/2'
  4  'x, -y+1/2, z+1/2'
loop_
 _atom_type_symbol
 _atom_type_oxidation_number
  La3+  3.0
  Mg2+  2.0
  Ta5+  5.0
  O2-  -2.0
loop_
 _atom_site_type_symbol
 _atom_site_label
 _atom_site_symmetry_multiplicity
 _atom_site_fract_x
 _atom_site_fract_y
 _atom_site_fract_z
 _atom_site_occupancy
  La3+  La0  4  0.09811300  0.53406200  0.83886100  1
  La3+  La1  4  0.27291400  0.04842000  0.00358800  1
  La3+  La2  4  0.42007200  0.54005700  0.15606300  1
  Mg2+  Mg3  4  0.33222700  0.50336800  0.33106200  1
  Mg2+  Mg4  2  0.00000000  0.00000000  0.50000000  1
  Mg2+  Mg5  2  0.50000000  0.00000000  0.50000000  1
  Ta5+  Ta6  4  0.16824500  0.50143200  0.66681600  1
  O2-  O7  4  0.10299400  0.52283900  0.36114000  1
  O2-  O8  4  0.12380500  0.70076000  0.57344200  1
  O2-  O9  4  0.14690200  0.21615700  0.60081200  1
  O2-  O10  4  0.18230900  0.71563100  0.23227500  1
  O2-  O11  4  0.21815400  0.20162900  0.26173400  1
  O2-  O12  4  0.21859400  0.03122700  0.47172600  1
  O2-  O13  4  0.43962800  0.52135100  0.69879300  1
  O2-  O14  4  0.44224700  0.70546100  0.89993500  1
  O2-  O15  4  0.47601900  0.20272100  0.92901300  1
