# generated using pymatgen
data_La3Ti5Al15O37
_symmetry_space_group_name_H-M   Cc
_cell_length_a   22.93863200
_cell_length_b   11.39691600
_cell_length_c   9.92939078
_cell_angle_alpha   90.00000000
_cell_angle_beta   97.51922676
_cell_angle_gamma   90.00000000
_symmetry_Int_Tables_number   9
_chemical_formula_structural   La3Ti5Al15O37
_chemical_formula_sum   'La12 Ti20 Al60 O148'
_cell_volume   2573.51568475
_cell_formula_units_Z   4
loop_
 _symmetry_equiv_pos_site_id
 _symmetry_equiv_pos_as_xyz
  1  'x, y, z'
  2  'x, -y, z+1/2'
  3  'x+1/2, y+1/2, z'
  4  'x+1/2, -y+1/2, z+1/2'
loop_
 _atom_type_symbol
 _atom_type_oxidation_number
  La3+  3.0
  Ti4+  4.0
  Al3+  3.0
  O2-  -2.0
loop_
 _atom_site_type_symbol
 _atom_site_label
 _atom_site_symmetry_multiplicity
 _atom_site_fract_x
 _atom_site_fract_y
 _atom_site_fract_z
 _atom_site_occupancy
  La3+  La0  4  0.01671650  0.09545850  0.61104100  1
  La3+  La1  4  0.13064000  0.14483300  0.95591000  1
  La3+  La2  4  0.22553900  0.13786500  0.32270800  1
  Ti4+  Ti3  4  0.08749350  0.10861350  0.28174000  1
  Ti4+  Ti4  4  0.18526150  0.13494550  0.63855500  1
  Ti4+  Ti5  4  0.31870100  0.01231400  0.12210500  1
  Ti4+  Ti6  4  0.36052100  0.26417300  0.63214200  1
  Ti4+  Ti7  4  0.48677200  0.13633500  0.93598200  1
  Al3+  Al8  4  0.05144300  0.37822500  0.95440600  1
  Al3+  Al9  4  0.08544650  0.38027050  0.28563000  1
  Al3+  Al10  4  0.11393750  0.37456250  0.61986600  1
  Al3+  Al11  4  0.18325300  0.36826300  0.14082700  1
  Al3+  Al12  4  0.18457600  0.48576200  0.89634600  1
  Al3+  Al13  4  0.25860350  0.24637650  0.92237100  1
  Al3+  Al14  4  0.30276000  0.48887000  0.10252000  1
  Al3+  Al15  4  0.30512850  0.37420950  0.34727200  1
  Al3+  Al16  4  0.37224250  0.12403550  0.88344300  1
  Al3+  Al17  4  0.38588750  0.26034850  0.14469000  1
  Al3+  Al18  4  0.38718850  0.40111750  0.88219300  1
  Al3+  Al19  4  0.38844300  0.12902000  0.38868800  1
  Al3+  Al20  4  0.47105050  0.00826550  0.17565700  1
  Al3+  Al21  4  0.47769850  0.36999050  0.40622000  1
  Al3+  Al22  4  0.47992400  0.25669000  0.66513000  1
  O2-  O23  4  0.02386700  0.38250600  0.12164800  1
  O2-  O24  4  0.02444600  0.12382700  0.11138500  1
  O2-  O25  4  0.02483750  0.49805650  0.34395100  1
  O2-  O26  4  0.02924100  0.38371800  0.60254200  1
  O2-  O27  4  0.03101300  0.25705000  0.34097500  1
  O2-  O28  4  0.03445300  0.24089900  0.88497700  1
  O2-  O29  4  0.04266250  0.01637150  0.84229900  1
  O2-  O30  4  0.11779600  0.22568700  0.67153000  1
  O2-  O31  4  0.12806600  0.39797800  0.45226100  1
  O2-  O32  4  0.12836000  0.25930400  0.22091900  1
  O2-  O33  4  0.12891450  0.37362450  0.97925000  1
  O2-  O34  4  0.13207600  0.02503900  0.17469900  1
  O2-  O35  4  0.13258750  0.49623350  0.22250900  1
  O2-  O36  4  0.14266250  0.08864950  0.43788700  1
  O2-  O37  4  0.21674000  0.12270400  0.82979100  1
  O2-  O38  4  0.22098800  0.23852100  0.08047200  1
  O2-  O39  4  0.22480950  0.36702450  0.83669900  1
  O2-  O40  4  0.22666650  0.48351350  0.06950600  1
  O2-  O41  4  0.22824850  0.37457250  0.31402400  1
  O2-  O42  4  0.22952550  0.22022650  0.54911200  1
  O2-  O43  4  0.24242800  0.00577800  0.10670600  1
  O2-  O44  4  0.32404150  0.38187950  0.52438700  1
  O2-  O45  4  0.32737050  0.15110250  0.02286300  1
  O2-  O46  4  0.32785400  0.24062600  0.79078500  1
  O2-  O47  4  0.33300400  0.00669700  0.31253300  1
  O2-  O48  4  0.33384950  0.49990350  0.27657000  1
  O2-  O49  4  0.33637700  0.24471300  0.28811500  1
  O2-  O50  4  0.33836500  0.12295300  0.53024900  1
  O2-  O51  4  0.34128000  0.37368800  0.02849000  1
  O2-  O52  4  0.42020400  0.11893500  0.22616700  1
  O2-  O53  4  0.42138550  0.34864350  0.72997200  1
  O2-  O54  4  0.42670150  0.24466250  0.97740300  1
  O2-  O55  4  0.42892650  0.01211150  0.98440500  1
  O2-  O56  4  0.42948750  0.24669550  0.49898300  1
  O2-  O57  4  0.43025100  0.12294100  0.74659800  1
  O2-  O58  4  0.44197600  0.35547600  0.23052400  1
  O2-  O59  4  0.44300900  0.49582500  0.95887600  1
