# generated using pymatgen
data_La4Ti9O24
_symmetry_space_group_name_H-M   Fddd
_cell_length_a   14.20013489
_cell_length_b   14.74605099
_cell_length_c   35.82387540
_cell_angle_alpha   90.00000000
_cell_angle_beta   90.00000000
_cell_angle_gamma   90.00000000
_symmetry_Int_Tables_number   70
_chemical_formula_structural   La4Ti9O24
_chemical_formula_sum   'La64 Ti144 O384'
_cell_volume   7501.37310598
_cell_formula_units_Z   16
loop_
 _symmetry_equiv_pos_site_id
 _symmetry_equiv_pos_as_xyz
  1  'x, y, z'
  2  '-x, -y, z'
  3  'x, -y, -z'
  4  '-x, y, -z'
  5  '-x+1/4, -y+1/4, -z+1/4'
  6  'x+1/4, y+1/4, -z+1/4'
  7  '-x+1/4, y+1/4, z+1/4'
  8  'x+1/4, -y+1/4, z+1/4'
  9  'x+1/2, y, z+1/2'
  10  '-x+1/2, -y, z+1/2'
  11  'x+1/2, -y, -z+1/2'
  12  '-x+1/2, y, -z+1/2'
  13  '-x+3/4, -y+1/4, -z+3/4'
  14  'x+3/4, y+1/4, -z+3/4'
  15  '-x+3/4, y+1/4, z+3/4'
  16  'x+3/4, -y+1/4, z+3/4'
  17  'x+1/2, y+1/2, z'
  18  '-x+1/2, -y+1/2, z'
  19  'x+1/2, -y+1/2, -z'
  20  '-x+1/2, y+1/2, -z'
  21  '-x+3/4, -y+3/4, -z+1/4'
  22  'x+3/4, y+3/4, -z+1/4'
  23  '-x+3/4, y+3/4, z+1/4'
  24  'x+3/4, -y+3/4, z+1/4'
  25  'x, y+1/2, z+1/2'
  26  '-x, -y+1/2, z+1/2'
  27  'x, -y+1/2, -z+1/2'
  28  '-x, y+1/2, -z+1/2'
  29  '-x+1/4, -y+3/4, -z+3/4'
  30  'x+1/4, y+3/4, -z+3/4'
  31  '-x+1/4, y+3/4, z+3/4'
  32  'x+1/4, -y+3/4, z+3/4'
loop_
 _atom_type_symbol
 _atom_type_oxidation_number
  La3+  3.0
  Ti4+  4.0
  O2-  -2.0
loop_
 _atom_site_type_symbol
 _atom_site_label
 _atom_site_symmetry_multiplicity
 _atom_site_fract_x
 _atom_site_fract_y
 _atom_site_fract_z
 _atom_site_occupancy
  La3+  La0  32  0.09482997  0.10124956  0.24706113  1
  La3+  La1  16  0.00000000  0.00000000  0.14261963  1
  La3+  La2  16  0.00000000  0.00000000  0.36817842  1
  Ti4+  Ti3  32  0.00419795  0.21982951  0.91256164  1
  Ti4+  Ti4  32  0.00782882  0.25182702  0.32935783  1
  Ti4+  Ti5  32  0.10534741  0.12710151  0.45927265  1
  Ti4+  Ti6  32  0.11127944  0.37131500  0.95467605  1
  Ti4+  Ti7  16  0.00000000  0.00000000  0.04505407  1
  O2-  O8  32  0.00070388  0.12430503  0.57719970  1
  O2-  O9  32  0.00338406  0.40655443  0.41812896  1
  O2-  O10  32  0.01719403  0.12408179  0.81527992  1
  O2-  O11  32  0.02846615  0.12403718  0.67431053  1
  O2-  O12  32  0.07087496  0.08354797  0.74819005  1
  O2-  O13  32  0.08752088  0.23131342  0.87098693  1
  O2-  O14  32  0.08790561  0.25807586  0.36965689  1
  O2-  O15  32  0.10223012  0.23703227  0.94688231  1
  O2-  O16  32  0.10539898  0.24335016  0.05492060  1
  O2-  O17  32  0.10796662  0.24568709  0.29091445  1
  O2-  O18  32  0.12169824  0.24946679  0.70727178  1
  O2-  O19  16  0.00000000  0.08727446  0.00000000  1
  O2-  O20  16  0.00000000  0.12645240  0.50000000  1
