# generated using pymatgen
data_LaLuO3
_symmetry_space_group_name_H-M   Pnma
_cell_length_a   5.97112351
_cell_length_b   8.32190561
_cell_length_c   5.78622784
_cell_angle_alpha   90.00000000
_cell_angle_beta   90.00000000
_cell_angle_gamma   90.00000000
_symmetry_Int_Tables_number   62
_chemical_formula_structural   LaLuO3
_chemical_formula_sum   'La4 Lu4 O12'
_cell_volume   287.52417803
_cell_formula_units_Z   4
loop_
 _symmetry_equiv_pos_site_id
 _symmetry_equiv_pos_as_xyz
  1  'x, y, z'
  2  '-x, -y, -z'
  3  '-x+1/2, -y, z+1/2'
  4  'x+1/2, y, -z+1/2'
  5  'x+1/2, -y+1/2, -z+1/2'
  6  '-x+1/2, y+1/2, z+1/2'
  7  '-x, y+1/2, -z'
  8  'x, -y+1/2, z'
loop_
 _atom_type_symbol
 _atom_type_oxidation_number
  La3+  3.0
  Lu3+  3.0
  O2-  -2.0
loop_
 _atom_site_type_symbol
 _atom_site_label
 _atom_site_symmetry_multiplicity
 _atom_site_fract_x
 _atom_site_fract_y
 _atom_site_fract_z
 _atom_site_occupancy
  La3+  La0  4  0.04875691  0.25000000  0.98601247  1
  Lu3+  Lu1  4  0.00000000  0.00000000  0.50000000  1
  O2-  O2  8  0.19707991  0.56176970  0.19551722  1
  O2-  O3  4  0.04815540  0.75000000  0.61672518  1
