# generated using pymatgen
data_LaNbO4
_symmetry_space_group_name_H-M   C2/c
_cell_length_a   7.38061522
_cell_length_b   11.54873487
_cell_length_c   5.23848982
_cell_angle_alpha   90.00000000
_cell_angle_beta   131.05744760
_cell_angle_gamma   90.00000000
_symmetry_Int_Tables_number   15
_chemical_formula_structural   LaNbO4
_chemical_formula_sum   'La4 Nb4 O16'
_cell_volume   336.69295741
_cell_formula_units_Z   4
loop_
 _symmetry_equiv_pos_site_id
 _symmetry_equiv_pos_as_xyz
  1  'x, y, z'
  2  '-x, -y, -z'
  3  '-x, y, -z+1/2'
  4  'x, -y, z+1/2'
  5  'x+1/2, y+1/2, z'
  6  '-x+1/2, -y+1/2, -z'
  7  '-x+1/2, y+1/2, -z+1/2'
  8  'x+1/2, -y+1/2, z+1/2'
loop_
 _atom_type_symbol
 _atom_type_oxidation_number
  La3+  3.0
  Nb5+  5.0
  O2-  -2.0
loop_
 _atom_site_type_symbol
 _atom_site_label
 _atom_site_symmetry_multiplicity
 _atom_site_fract_x
 _atom_site_fract_y
 _atom_site_fract_z
 _atom_site_occupancy
  La3+  La0  4  0.00000000  0.37056650  0.25000000  1
  Nb5+  Nb1  4  0.00000000  0.10453153  0.75000000  1
  O2-  O2  8  0.15087971  0.20581263  0.66074414  1
  O2-  O3  8  0.23864055  0.03229105  0.18750551  1
