# generated using pymatgen
data_Li2MgSiO4
_symmetry_space_group_name_H-M   Pna2_1
_cell_length_a   10.82596900
_cell_length_b   5.05866000
_cell_length_c   6.36529000
_cell_angle_alpha   90.00000000
_cell_angle_beta   90.00000000
_cell_angle_gamma   90.00000000
_symmetry_Int_Tables_number   33
_chemical_formula_structural   Li2MgSiO4
_chemical_formula_sum   'Li8 Mg4 Si4 O16'
_cell_volume   348.59444703
_cell_formula_units_Z   4
loop_
 _symmetry_equiv_pos_site_id
 _symmetry_equiv_pos_as_xyz
  1  'x, y, z'
  2  '-x, -y, z+1/2'
  3  '-x+1/2, y+1/2, z+1/2'
  4  'x+1/2, -y+1/2, z'
loop_
 _atom_type_symbol
 _atom_type_oxidation_number
  Li+  1.0
  Mg2+  2.0
  Si4+  4.0
  O2-  -2.0
loop_
 _atom_site_type_symbol
 _atom_site_label
 _atom_site_symmetry_multiplicity
 _atom_site_fract_x
 _atom_site_fract_y
 _atom_site_fract_z
 _atom_site_occupancy
  Li+  Li0  4  0.07466800  0.29324400  0.25667500  1
  Li+  Li1  4  0.16215300  0.69342600  0.50314500  1
  Mg2+  Mg2  4  0.16588200  0.69081900  0.99615500  1
  Si4+  Si3  4  0.08634200  0.18792100  0.75227900  1
  O2-  O4  4  0.05749000  0.71000600  0.24771300  1
  O2-  O5  4  0.09126500  0.86072500  0.75488500  1
  O2-  O6  4  0.15980200  0.29766900  0.95961700  1
  O2-  O7  4  0.16075200  0.29413000  0.54019000  1
