# generated using pymatgen
data_Li2TiO3
_symmetry_space_group_name_H-M   C2/c
_cell_length_a   5.04545085
_cell_length_b   8.75780562
_cell_length_c   9.68173310
_cell_angle_alpha   90.00000000
_cell_angle_beta   100.23989528
_cell_angle_gamma   90.00000000
_symmetry_Int_Tables_number   15
_chemical_formula_structural   Li2TiO3
_chemical_formula_sum   'Li16 Ti8 O24'
_cell_volume   420.99340379
_cell_formula_units_Z   8
loop_
 _symmetry_equiv_pos_site_id
 _symmetry_equiv_pos_as_xyz
  1  'x, y, z'
  2  '-x, -y, -z'
  3  '-x, y, -z+1/2'
  4  'x, -y, z+1/2'
  5  'x+1/2, y+1/2, z'
  6  '-x+1/2, -y+1/2, -z'
  7  '-x+1/2, y+1/2, -z+1/2'
  8  'x+1/2, -y+1/2, z+1/2'
loop_
 _atom_type_symbol
 _atom_type_oxidation_number
  Li+  1.0
  Ti4+  4.0
  O2-  -2.0
loop_
 _atom_site_type_symbol
 _atom_site_label
 _atom_site_symmetry_multiplicity
 _atom_site_fract_x
 _atom_site_fract_y
 _atom_site_fract_z
 _atom_site_occupancy
  Li+  Li0  8  0.23999639  0.07992042  0.99964286  1
  Li+  Li1  4  0.00000000  0.08454726  0.25000000  1
  Li+  Li2  4  0.25000000  0.25000000  0.50000000  1
  Ti4+  Ti3  4  0.00000000  0.25011656  0.75000000  1
  Ti4+  Ti4  4  0.00000000  0.41755464  0.25000000  1
  O2-  O5  8  0.10656078  0.41558198  0.63601782  1
  O2-  O6  8  0.13821031  0.09329944  0.63366191  1
  O2-  O7  8  0.13940408  0.26268408  0.13587876  1
