# generated using pymatgen
data_Li2ZnSiO4
_symmetry_space_group_name_H-M   P2_1/c
_cell_length_a   5.10776600
_cell_length_b   10.73537400
_cell_length_c   8.08758152
_cell_angle_alpha   90.00000000
_cell_angle_beta   128.56814300
_cell_angle_gamma   90.00000000
_symmetry_Int_Tables_number   14
_chemical_formula_structural   Li2ZnSiO4
_chemical_formula_sum   'Li8 Zn4 Si4 O16'
_cell_volume   346.73673630
_cell_formula_units_Z   4
loop_
 _symmetry_equiv_pos_site_id
 _symmetry_equiv_pos_as_xyz
  1  'x, y, z'
  2  '-x, -y, -z'
  3  '-x, y+1/2, -z+1/2'
  4  'x, -y+1/2, z+1/2'
loop_
 _atom_type_symbol
 _atom_type_oxidation_number
  Li+  1.0
  Zn2+  2.0
  Si4+  4.0
  O2-  -2.0
loop_
 _atom_site_type_symbol
 _atom_site_label
 _atom_site_symmetry_multiplicity
 _atom_site_fract_x
 _atom_site_fract_y
 _atom_site_fract_z
 _atom_site_occupancy
  Li+  Li0  4  0.31502100  0.66315800  0.50653500  1
  Li+  Li1  4  0.46179500  0.57527700  0.25987200  1
  Zn2+  Zn2  4  0.19049800  0.16445600  0.49859100  1
  Si4+  Si3  4  0.06403300  0.58807100  0.75384300  1
  O2-  O4  4  0.05501500  0.55635400  0.25619100  1
  O2-  O5  4  0.17317500  0.66032800  0.96949000  1
  O2-  O6  4  0.25676500  0.16044000  0.96050600  1
  O2-  O7  4  0.38934700  0.58944100  0.75431100  1
