# generated using pymatgen
data_LiInSiO4
_symmetry_space_group_name_H-M   Pnma
_cell_length_a   10.64097100
_cell_length_b   6.15251900
_cell_length_c   4.91256900
_cell_angle_alpha   90.00000000
_cell_angle_beta   90.00000000
_cell_angle_gamma   90.00000000
_symmetry_Int_Tables_number   62
_chemical_formula_structural   LiInSiO4
_chemical_formula_sum   'Li4 In4 Si4 O16'
_cell_volume   321.61988070
_cell_formula_units_Z   4
loop_
 _symmetry_equiv_pos_site_id
 _symmetry_equiv_pos_as_xyz
  1  'x, y, z'
  2  '-x, -y, -z'
  3  '-x+1/2, -y, z+1/2'
  4  'x+1/2, y, -z+1/2'
  5  'x+1/2, -y+1/2, -z+1/2'
  6  '-x+1/2, y+1/2, z+1/2'
  7  '-x, y+1/2, -z'
  8  'x, -y+1/2, z'
loop_
 _atom_type_symbol
 _atom_type_oxidation_number
  Li+  1.0
  In3+  3.0
  Si4+  4.0
  O2-  -2.0
loop_
 _atom_site_type_symbol
 _atom_site_label
 _atom_site_symmetry_multiplicity
 _atom_site_fract_x
 _atom_site_fract_y
 _atom_site_fract_z
 _atom_site_occupancy
  Li+  Li0  4  0.00000000  0.00000000  0.00000000  1
  In3+  In1  4  0.22428600  0.25000000  0.52123500  1
  Si4+  Si2  4  0.08878500  0.75000000  0.57575000  1
  O2-  O3  8  0.16283500  0.54208200  0.72827900  1
  O2-  O4  4  0.05319800  0.25000000  0.29473000  1
  O2-  O5  4  0.09764300  0.75000000  0.24561200  1
