# generated using pymatgen
data_LiNdTi2O6
_symmetry_space_group_name_H-M   Pmc2_1
_cell_length_a   7.66139200
_cell_length_b   5.37674200
_cell_length_c   5.62295100
_cell_angle_alpha   90.00000000
_cell_angle_beta   90.00000000
_cell_angle_gamma   90.00000000
_symmetry_Int_Tables_number   26
_chemical_formula_structural   LiNdTi2O6
_chemical_formula_sum   'Li2 Nd2 Ti4 O12'
_cell_volume   231.62806569
_cell_formula_units_Z   2
loop_
 _symmetry_equiv_pos_site_id
 _symmetry_equiv_pos_as_xyz
  1  'x, y, z'
  2  '-x, -y, z+1/2'
  3  '-x, y, z'
  4  'x, -y, z+1/2'
loop_
 _atom_type_symbol
 _atom_type_oxidation_number
  Li+  1.0
  Nd3+  3.0
  Ti4+  4.0
  O2-  -2.0
loop_
 _atom_site_type_symbol
 _atom_site_label
 _atom_site_symmetry_multiplicity
 _atom_site_fract_x
 _atom_site_fract_y
 _atom_site_fract_z
 _atom_site_occupancy
  Li+  Li0  2  0.50000000  0.28425100  0.62461600  1
  Nd3+  Nd1  2  0.00000000  0.26443400  0.69661400  1
  Ti4+  Ti2  4  0.26611100  0.23822000  0.22080600  1
  O2-  O3  4  0.20020600  0.45829000  0.97728700  1
  O2-  O4  4  0.28708700  0.05575000  0.55812900  1
  O2-  O5  2  0.00000000  0.17141200  0.27272800  1
  O2-  O6  2  0.50000000  0.35014600  0.25359700  1
