# generated using pymatgen
data_LiNiPO4
_symmetry_space_group_name_H-M   Pnma
_cell_length_a   10.14381000
_cell_length_b   5.92667200
_cell_length_c   4.73214600
_cell_angle_alpha   90.00000000
_cell_angle_beta   90.00000000
_cell_angle_gamma   90.00000000
_symmetry_Int_Tables_number   62
_chemical_formula_structural   LiNiPO4
_chemical_formula_sum   'Li4 Ni4 P4 O16'
_cell_volume   284.49204982
_cell_formula_units_Z   4
loop_
 _symmetry_equiv_pos_site_id
 _symmetry_equiv_pos_as_xyz
  1  'x, y, z'
  2  '-x, -y, -z'
  3  '-x+1/2, -y, z+1/2'
  4  'x+1/2, y, -z+1/2'
  5  'x+1/2, -y+1/2, -z+1/2'
  6  '-x+1/2, y+1/2, z+1/2'
  7  '-x, y+1/2, -z'
  8  'x, -y+1/2, z'
loop_
 _atom_type_symbol
 _atom_type_oxidation_number
  Li+  1.0
  Ni2+  2.0
  P5+  5.0
  O2-  -2.0
loop_
 _atom_site_type_symbol
 _atom_site_label
 _atom_site_symmetry_multiplicity
 _atom_site_fract_x
 _atom_site_fract_y
 _atom_site_fract_z
 _atom_site_occupancy
  Li+  Li0  4  0.00000000  0.00000000  0.50000000  1
  Ni2+  Ni1  4  0.22429600  0.25000000  0.01841400  1
  P5+  P2  4  0.09422000  0.75000000  0.08324200  1
  O2-  O3  8  0.16543800  0.54170300  0.22507800  1
  O2-  O4  4  0.04889100  0.25000000  0.79910100  1
  O2-  O5  4  0.09980000  0.75000000  0.75905600  1
