# generated using pymatgen
data_LiYb(WO4)2
_symmetry_space_group_name_H-M   P2/c
_cell_length_a   5.36226002
_cell_length_b   5.88071000
_cell_length_c   10.71362228
_cell_angle_alpha   90.00000000
_cell_angle_beta   111.94666527
_cell_angle_gamma   90.00000000
_symmetry_Int_Tables_number   13
_chemical_formula_structural   LiYb(WO4)2
_chemical_formula_sum   'Li2 Yb2 W4 O16'
_cell_volume   313.35955450
_cell_formula_units_Z   2
loop_
 _symmetry_equiv_pos_site_id
 _symmetry_equiv_pos_as_xyz
  1  'x, y, z'
  2  '-x, -y, -z'
  3  '-x, y, -z+1/2'
  4  'x, -y, z+1/2'
loop_
 _atom_site_type_symbol
 _atom_site_label
 _atom_site_symmetry_multiplicity
 _atom_site_fract_x
 _atom_site_fract_y
 _atom_site_fract_z
 _atom_site_occupancy
  Li  Li0  2  0.500000  0.400838  0.250000  1
  Yb  Yb1  2  0.000000  0.305598  0.750000  1
  W  W2  4  0.266016  0.180354  0.494011  1
  O  O3  4  0.109134  0.069951  0.099299  1
  O  O4  4  0.237784  0.383083  0.615853  1
  O  O5  4  0.266235  0.366391  0.360304  1
  O  O6  4  0.359903  0.115446  0.904830  1
