# generated using pymatgen
data_LiVZnO4
_symmetry_space_group_name_H-M   R3
_cell_length_a   14.39767309
_cell_length_b   14.39767309
_cell_length_c   9.60785567
_cell_angle_alpha   90.00000000
_cell_angle_beta   90.00000000
_cell_angle_gamma   120.00000000
_symmetry_Int_Tables_number   146
_chemical_formula_structural   LiVZnO4
_chemical_formula_sum   'Li18 V18 Zn18 O72'
_cell_volume   1724.81181735
_cell_formula_units_Z   18
loop_
 _symmetry_equiv_pos_site_id
 _symmetry_equiv_pos_as_xyz
  1  'x, y, z'
  2  '-y, x-y, z'
  3  '-x+y, -x, z'
  4  'x+2/3, y+1/3, z+1/3'
  5  '-y+2/3, x-y+1/3, z+1/3'
  6  '-x+y+2/3, -x+1/3, z+1/3'
  7  'x+1/3, y+2/3, z+2/3'
  8  '-y+1/3, x-y+2/3, z+2/3'
  9  '-x+y+1/3, -x+2/3, z+2/3'
loop_
 _atom_type_symbol
 _atom_type_oxidation_number
  Li+  1.0
  V5+  5.0
  Zn2+  2.0
  O2-  -2.0
loop_
 _atom_site_type_symbol
 _atom_site_label
 _atom_site_symmetry_multiplicity
 _atom_site_fract_x
 _atom_site_fract_y
 _atom_site_fract_z
 _atom_site_occupancy
  Li+  Li0  9  0.02110600  0.21411900  0.41767700  1
  Li+  Li1  9  0.14220767  0.68657633  0.58210833  1
  V5+  V2  9  0.01672500  0.21193000  0.74978600  1
  V5+  V3  9  0.13806133  0.68345267  0.91630567  1
  Zn2+  Zn4  9  0.02028367  0.21134633  0.08426133  1
  Zn2+  Zn5  9  0.14011267  0.68712433  0.24899733  1
  O2-  O6  9  0.00340400  0.32599500  0.75092700  1
  O2-  O7  9  0.01067300  0.67007100  0.91559000  1
  O2-  O8  9  0.08129233  0.20717467  0.90222167  1
  O2-  O9  9  0.08596867  0.21046733  0.60070733  1
  O2-  O10  9  0.10082967  0.21386233  0.25025833  1
  O2-  O11  9  0.20718767  0.12519933  0.09900633  1
  O2-  O12  9  0.20750433  0.75140067  0.06766767  1
  O2-  O13  9  0.21416333  0.11307767  0.74781867  1
