# generated using pymatgen
data_Mg2V2O7
_symmetry_space_group_name_H-M   P-1
_cell_length_a   4.94987179
_cell_length_b   5.40659891
_cell_length_c   10.56122502
_cell_angle_alpha   101.23643222
_cell_angle_beta   102.17180709
_cell_angle_gamma   98.62063513
_symmetry_Int_Tables_number   2
_chemical_formula_structural   Mg2V2O7
_chemical_formula_sum   'Mg4 V4 O14'
_cell_volume   265.55924353
_cell_formula_units_Z   2
loop_
 _symmetry_equiv_pos_site_id
 _symmetry_equiv_pos_as_xyz
  1  'x, y, z'
  2  '-x, -y, -z'
loop_
 _atom_type_symbol
 _atom_type_oxidation_number
  Mg2+  2.0
  V5+  5.0
  O2-  -2.0
loop_
 _atom_site_type_symbol
 _atom_site_label
 _atom_site_symmetry_multiplicity
 _atom_site_fract_x
 _atom_site_fract_y
 _atom_site_fract_z
 _atom_site_occupancy
  Mg2+  Mg0  2  0.42517014  0.21179506  0.41736049  1
  Mg2+  Mg1  2  0.48678649  0.20985397  0.91479699  1
  V5+  V2  2  0.03712271  0.35064424  0.64133030  1
  V5+  V3  2  0.14482178  0.20369278  0.13465538  1
  O2-  O4  2  0.09811509  0.37323417  0.28975940  1
  O2-  O5  2  0.17686595  0.23750848  0.76851186  1
  O2-  O6  2  0.20786546  0.92260470  0.95897433  1
  O2-  O7  2  0.23677864  0.88355015  0.46005744  1
  O2-  O8  2  0.29277929  0.44558733  0.56317611  1
  O2-  O9  2  0.30924864  0.42391236  0.06820331  1
  O2-  O10  2  0.37509369  0.04104636  0.21560043  1
