# generated using pymatgen
data_MgGeO3
_symmetry_space_group_name_H-M   C2/c
_cell_length_a   9.59934870
_cell_length_b   8.92510448
_cell_length_c   5.16855013
_cell_angle_alpha   90.00000000
_cell_angle_beta   100.77408402
_cell_angle_gamma   90.00000000
_symmetry_Int_Tables_number   15
_chemical_formula_structural   MgGeO3
_chemical_formula_sum   'Mg8 Ge8 O24'
_cell_volume   435.01050409
_cell_formula_units_Z   8
loop_
 _symmetry_equiv_pos_site_id
 _symmetry_equiv_pos_as_xyz
  1  'x, y, z'
  2  '-x, -y, -z'
  3  '-x, y, -z+1/2'
  4  'x, -y, z+1/2'
  5  'x+1/2, y+1/2, z'
  6  '-x+1/2, -y+1/2, -z'
  7  '-x+1/2, y+1/2, -z+1/2'
  8  'x+1/2, -y+1/2, z+1/2'
loop_
 _atom_type_symbol
 _atom_type_oxidation_number
  Mg2+  2.0
  Ge4+  4.0
  O2-  -2.0
loop_
 _atom_site_type_symbol
 _atom_site_label
 _atom_site_symmetry_multiplicity
 _atom_site_fract_x
 _atom_site_fract_y
 _atom_site_fract_z
 _atom_site_occupancy
  Mg2+  Mg0  4  0.00000000  0.09197106  0.75000000  1
  Mg2+  Mg1  4  0.00000000  0.26818918  0.25000000  1
  Ge4+  Ge2  8  0.19931498  0.40511197  0.78982326  1
  O2-  O3  8  0.11595693  0.09023187  0.13037379  1
  O2-  O4  8  0.11714677  0.25593128  0.61766078  1
  O2-  O5  8  0.13858165  0.42974893  0.09848751  1
