# generated using pymatgen
data_MgMoO4
_symmetry_space_group_name_H-M   C2/m
_cell_length_a   10.27749829
_cell_length_b   9.26030591
_cell_length_c   7.03984689
_cell_angle_alpha   90.00000000
_cell_angle_beta   107.20480759
_cell_angle_gamma   90.00000000
_symmetry_Int_Tables_number   12
_chemical_formula_structural   MgMoO4
_chemical_formula_sum   'Mg8 Mo8 O32'
_cell_volume   640.02158256
_cell_formula_units_Z   8
loop_
 _symmetry_equiv_pos_site_id
 _symmetry_equiv_pos_as_xyz
  1  'x, y, z'
  2  '-x, -y, -z'
  3  '-x, y, -z'
  4  'x, -y, z'
  5  'x+1/2, y+1/2, z'
  6  '-x+1/2, -y+1/2, -z'
  7  '-x+1/2, y+1/2, -z'
  8  'x+1/2, -y+1/2, z'
loop_
 _atom_type_symbol
 _atom_type_oxidation_number
  Mg2+  2.0
  Mo6+  6.0
  O2-  -2.0
loop_
 _atom_site_type_symbol
 _atom_site_label
 _atom_site_symmetry_multiplicity
 _atom_site_fract_x
 _atom_site_fract_y
 _atom_site_fract_z
 _atom_site_occupancy
  Mg2+  Mg0  4  0.00000000  0.32215992  0.00000000  1
  Mg2+  Mg1  4  0.20097303  0.50000000  0.35813860  1
  Mo6+  Mo2  4  0.00000000  0.25033400  0.50000000  1
  Mo6+  Mo3  4  0.22984779  0.00000000  0.09455185  1
  O2-  O4  8  0.04186415  0.34727989  0.30380889  1
  O2-  O5  8  0.13402313  0.15591005  0.02738387  1
  O2-  O6  8  0.14175506  0.14442521  0.60881350  1
  O2-  O7  4  0.14068824  0.50000000  0.03928575  1
  O2-  O8  4  0.20007911  0.50000000  0.64568847  1
