# generated using pymatgen
data_Mn2SiO4
_symmetry_space_group_name_H-M   Pnma
_cell_length_a   10.57596765
_cell_length_b   6.25712441
_cell_length_c   4.89611994
_cell_angle_alpha   90.00000000
_cell_angle_beta   90.00000000
_cell_angle_gamma   90.00000000
_symmetry_Int_Tables_number   62
_chemical_formula_structural   Mn2SiO4
_chemical_formula_sum   'Mn8 Si4 O16'
_cell_volume   324.00144864
_cell_formula_units_Z   4
loop_
 _symmetry_equiv_pos_site_id
 _symmetry_equiv_pos_as_xyz
  1  'x, y, z'
  2  '-x, -y, -z'
  3  '-x+1/2, -y, z+1/2'
  4  'x+1/2, y, -z+1/2'
  5  'x+1/2, -y+1/2, -z+1/2'
  6  '-x+1/2, y+1/2, z+1/2'
  7  '-x, y+1/2, -z'
  8  'x, -y+1/2, z'
loop_
 _atom_type_symbol
 _atom_type_oxidation_number
  Mn2+  2.0
  Si4+  4.0
  O2-  -2.0
loop_
 _atom_site_type_symbol
 _atom_site_label
 _atom_site_symmetry_multiplicity
 _atom_site_fract_x
 _atom_site_fract_y
 _atom_site_fract_z
 _atom_site_occupancy
  Mn2+  Mn0  4  0.00000000  0.00000000  0.00000000  1
  Mn2+  Mn1  4  0.21994744  0.75000000  0.48506426  1
  Si4+  Si2  4  0.09660788  0.25000000  0.42797752  1
  O2-  O3  8  0.16408895  0.04091621  0.28711133  1
  O2-  O4  4  0.04685635  0.75000000  0.70998563  1
  O2-  O5  4  0.09351098  0.25000000  0.75947936  1
