# generated using pymatgen
data_MnMoO4
_symmetry_space_group_name_H-M   C2/m
_cell_length_a   10.46348177
_cell_length_b   9.45250060
_cell_length_c   7.14434359
_cell_angle_alpha   90.00000000
_cell_angle_beta   106.96989110
_cell_angle_gamma   90.00000000
_symmetry_Int_Tables_number   12
_chemical_formula_structural   MnMoO4
_chemical_formula_sum   'Mn8 Mo8 O32'
_cell_volume   675.85151678
_cell_formula_units_Z   8
loop_
 _symmetry_equiv_pos_site_id
 _symmetry_equiv_pos_as_xyz
  1  'x, y, z'
  2  '-x, -y, -z'
  3  '-x, y, -z'
  4  'x, -y, z'
  5  'x+1/2, y+1/2, z'
  6  '-x+1/2, -y+1/2, -z'
  7  '-x+1/2, y+1/2, -z'
  8  'x+1/2, -y+1/2, z'
loop_
 _atom_type_symbol
 _atom_type_oxidation_number
  Mn2+  2.0
  Mo6+  6.0
  O2-  -2.0
loop_
 _atom_site_type_symbol
 _atom_site_label
 _atom_site_symmetry_multiplicity
 _atom_site_fract_x
 _atom_site_fract_y
 _atom_site_fract_z
 _atom_site_occupancy
  Mn2+  Mn0  4  0.00000000  0.18359843  0.50000000  1
  Mn2+  Mn1  4  0.20552314  0.00000000  0.86265468  1
  Mo6+  Mo2  4  0.00000000  0.24937798  0.00000000  1
  Mo6+  Mo3  4  0.23099022  0.50000000  0.59428161  1
  O2-  O4  8  0.04169606  0.15281591  0.80726586  1
  O2-  O5  8  0.13579595  0.34691146  0.52860381  1
  O2-  O6  8  0.13932377  0.35400139  0.10799536  1
  O2-  O7  4  0.14179869  0.00000000  0.53751581  1
  O2-  O8  4  0.19831874  0.00000000  0.14955317  1
