# generated using pymatgen
data_MoPb2O5
_symmetry_space_group_name_H-M   C2/m
_cell_length_a   14.23200481
_cell_length_b   5.81717780
_cell_length_c   7.35280557
_cell_angle_alpha   90.00000000
_cell_angle_beta   113.50953820
_cell_angle_gamma   90.00000000
_symmetry_Int_Tables_number   12
_chemical_formula_structural   MoPb2O5
_chemical_formula_sum   'Mo4 Pb8 O20'
_cell_volume   558.21029874
_cell_formula_units_Z   4
loop_
 _symmetry_equiv_pos_site_id
 _symmetry_equiv_pos_as_xyz
  1  'x, y, z'
  2  '-x, -y, -z'
  3  '-x, y, -z'
  4  'x, -y, z'
  5  'x+1/2, y+1/2, z'
  6  '-x+1/2, -y+1/2, -z'
  7  '-x+1/2, y+1/2, -z'
  8  'x+1/2, -y+1/2, z'
loop_
 _atom_type_symbol
 _atom_type_oxidation_number
  Mo6+  6.0
  Pb2+  2.0
  O2-  -2.0
loop_
 _atom_site_type_symbol
 _atom_site_label
 _atom_site_symmetry_multiplicity
 _atom_site_fract_x
 _atom_site_fract_y
 _atom_site_fract_z
 _atom_site_occupancy
  Mo6+  Mo0  4  0.16932462  0.00000000  0.65955575  1
  Pb2+  Pb1  4  0.01237023  0.50000000  0.25540553  1
  Pb2+  Pb2  4  0.13647409  0.00000000  0.11272851  1
  O2-  O3  8  0.14581664  0.24214879  0.77892558  1
  O2-  O4  4  0.00000000  0.25300557  0.00000000  1
  O2-  O5  4  0.08972533  0.00000000  0.40021512  1
  O2-  O6  4  0.20024477  0.50000000  0.30540638  1
