# generated using pymatgen
data_Na2Mo2O7
_symmetry_space_group_name_H-M   Cmce
_cell_length_a   7.17539010
_cell_length_b   11.78440100
_cell_length_c   14.69544149
_cell_angle_alpha   90.00000000
_cell_angle_beta   90.00000000
_cell_angle_gamma   90.00000000
_symmetry_Int_Tables_number   64
_chemical_formula_structural   Na2Mo2O7
_chemical_formula_sum   'Na16 Mo16 O56'
_cell_volume   1242.61235476
_cell_formula_units_Z   8
loop_
 _symmetry_equiv_pos_site_id
 _symmetry_equiv_pos_as_xyz
  1  'x, y, z'
  2  '-x, -y, -z'
  3  '-x+1/2, -y, z+1/2'
  4  'x+1/2, y, -z+1/2'
  5  'x, -y, -z'
  6  '-x, y, z'
  7  '-x+1/2, y, -z+1/2'
  8  'x+1/2, -y, z+1/2'
  9  'x+1/2, y+1/2, z'
  10  '-x+1/2, -y+1/2, -z'
  11  '-x, -y+1/2, z+1/2'
  12  'x, y+1/2, -z+1/2'
  13  'x+1/2, -y+1/2, -z'
  14  '-x+1/2, y+1/2, z'
  15  '-x, y+1/2, -z+1/2'
  16  'x, -y+1/2, z+1/2'
loop_
 _atom_type_symbol
 _atom_type_oxidation_number
  Na+  1.0
  Mo6+  6.0
  O2-  -2.0
loop_
 _atom_site_type_symbol
 _atom_site_label
 _atom_site_symmetry_multiplicity
 _atom_site_fract_x
 _atom_site_fract_y
 _atom_site_fract_z
 _atom_site_occupancy
  Na+  Na0  8  0.00000000  0.18053728  0.15506621  1
  Na+  Na1  8  0.24660976  0.00000000  0.00000000  1
  Mo6+  Mo2  8  0.00000000  0.24657102  0.91586840  1
  Mo6+  Mo3  8  0.25000000  0.08106356  0.75000000  1
  O2-  O4  16  0.19972365  0.00959588  0.16180725  1
  O2-  O5  16  0.20155561  0.23143861  0.84537884  1
  O2-  O6  8  0.00000000  0.12130787  0.71787935  1
  O2-  O7  8  0.00000000  0.12307264  0.47096776  1
  O2-  O8  8  0.00000000  0.13881702  0.99876988  1
