# generated using pymatgen
data_NaLaTi2O6
_symmetry_space_group_name_H-M   Pmn2_1
_cell_length_a   7.78232512
_cell_length_b   5.51869090
_cell_length_c   5.49445462
_cell_angle_alpha   90.00000000
_cell_angle_beta   90.00000000
_cell_angle_gamma   90.00000000
_symmetry_Int_Tables_number   31
_chemical_formula_structural   NaLaTi2O6
_chemical_formula_sum   'Na2 La2 Ti4 O12'
_cell_volume   235.97719316
_cell_formula_units_Z   2
loop_
 _symmetry_equiv_pos_site_id
 _symmetry_equiv_pos_as_xyz
  1  'x, y, z'
  2  '-x+1/2, -y, z+1/2'
  3  '-x, y, z'
  4  'x+1/2, -y, z+1/2'
loop_
 _atom_type_symbol
 _atom_type_oxidation_number
  Na+  1.0
  La3+  3.0
  Ti4+  4.0
  O2-  -2.0
loop_
 _atom_site_type_symbol
 _atom_site_label
 _atom_site_symmetry_multiplicity
 _atom_site_fract_x
 _atom_site_fract_y
 _atom_site_fract_z
 _atom_site_occupancy
  Na+  Na0  2  0.00000000  0.72295692  0.49550597  1
  La3+  La1  2  0.00000000  0.22314633  0.00565364  1
  Ti4+  Ti2  4  0.24898487  0.74693189  0.00344860  1
  O2-  O3  4  0.21650125  0.46708605  0.21689390  1
  O2-  O4  4  0.21914416  0.97139475  0.27621825  1
  O2-  O5  2  0.00000000  0.26055197  0.56453588  1
  O2-  O6  2  0.00000000  0.76037758  0.94118300  1
