# generated using pymatgen
data_NaMg4V3O12
_symmetry_space_group_name_H-M   I-42d
_cell_length_a   6.97273000
_cell_length_b   6.97273000
_cell_length_c   19.50791000
_cell_angle_alpha   90.00000000
_cell_angle_beta   90.00000000
_cell_angle_gamma   90.00000000
_symmetry_Int_Tables_number   122
_chemical_formula_structural   NaMg4V3O12
_chemical_formula_sum   'Na4 Mg16 V12 O48'
_cell_volume   948.45436723
_cell_formula_units_Z   4
loop_
 _symmetry_equiv_pos_site_id
 _symmetry_equiv_pos_as_xyz
  1  'x, y, z'
  2  'y, -x, -z'
  3  '-x, -y, z'
  4  '-y, x, -z'
  5  'x, -y+1/2, -z+1/4'
  6  'y, x+1/2, z+1/4'
  7  '-x, y+1/2, -z+1/4'
  8  '-y, -x+1/2, z+1/4'
  9  'x+1/2, y+1/2, z+1/2'
  10  'y+1/2, -x+1/2, -z+1/2'
  11  '-x+1/2, -y+1/2, z+1/2'
  12  '-y+1/2, x+1/2, -z+1/2'
  13  'x+1/2, -y, -z+3/4'
  14  'y+1/2, x, z+3/4'
  15  '-x+1/2, y, -z+3/4'
  16  '-y+1/2, -x, z+3/4'
loop_
 _atom_type_symbol
 _atom_type_oxidation_number
  Na+  1.0
  Mg2+  2.0
  V5+  5.0
  O2-  -2.0
loop_
 _atom_site_type_symbol
 _atom_site_label
 _atom_site_symmetry_multiplicity
 _atom_site_fract_x
 _atom_site_fract_y
 _atom_site_fract_z
 _atom_site_occupancy
  Na+  Na0  4  0.00000000  0.00000000  0.50000000  1
  Mg2+  Mg1  8  0.00000000  0.00000000  0.22573800  1
  Mg2+  Mg2  8  0.24152000  0.75000000  0.12500000  1
  V5+  V3  8  0.15147500  0.25000000  0.62500000  1
  V5+  V4  4  0.00000000  0.00000000  0.00000000  1
  O2-  O5  16  0.00945850  0.69904650  0.55878650  1
  O2-  O6  16  0.04158850  0.72810250  0.40192750  1
  O2-  O7  16  0.05508200  0.70821600  0.20431900  1
