# generated using pymatgen
data_NaPrTi2O6
_symmetry_space_group_name_H-M   Pmn2_1
_cell_length_a   7.75354186
_cell_length_b   5.51320644
_cell_length_c   5.48416452
_cell_angle_alpha   90.00000000
_cell_angle_beta   90.00000000
_cell_angle_gamma   90.00000000
_symmetry_Int_Tables_number   31
_chemical_formula_structural   NaPrTi2O6
_chemical_formula_sum   'Na2 Pr2 Ti4 O12'
_cell_volume   234.43090572
_cell_formula_units_Z   2
loop_
 _symmetry_equiv_pos_site_id
 _symmetry_equiv_pos_as_xyz
  1  'x, y, z'
  2  '-x+1/2, -y, z+1/2'
  3  '-x, y, z'
  4  'x+1/2, -y, z+1/2'
loop_
 _atom_type_symbol
 _atom_type_oxidation_number
  Na+  1.0
  Pr3+  3.0
  Ti4+  4.0
  O2-  -2.0
loop_
 _atom_site_type_symbol
 _atom_site_label
 _atom_site_symmetry_multiplicity
 _atom_site_fract_x
 _atom_site_fract_y
 _atom_site_fract_z
 _atom_site_occupancy
  Na+  Na0  2  0.00000000  0.23418845  0.99668654  1
  Pr3+  Pr1  2  0.00000000  0.72029208  0.50895542  1
  Ti4+  Ti2  4  0.24936119  0.24624861  0.50073706  1
  O2-  O3  4  0.21311607  0.96818315  0.71794789  1
  O2-  O4  4  0.21556944  0.47730581  0.77176068  1
  O2-  O5  2  0.00000000  0.26192090  0.43855871  1
  O2-  O6  2  0.00000000  0.75895781  0.07490809  1
