# generated using pymatgen
data_NaV2Bi3O10
_symmetry_space_group_name_H-M   P1
_cell_length_a   5.66659900
_cell_length_b   7.11509966
_cell_length_c   7.22332352
_cell_angle_alpha   68.82704784
_cell_angle_beta   85.45152237
_cell_angle_gamma   68.66015600
_symmetry_Int_Tables_number   1
_chemical_formula_structural   NaV2Bi3O10
_chemical_formula_sum   'Na1 V2 Bi3 O10'
_cell_volume   252.49757505
_cell_formula_units_Z   1
loop_
 _symmetry_equiv_pos_site_id
 _symmetry_equiv_pos_as_xyz
  1  'x, y, z'
loop_
 _atom_type_symbol
 _atom_type_oxidation_number
  Na+  1.0
  V5+  5.0
  Bi3+  3.0
  O2-  -2.0
loop_
 _atom_site_type_symbol
 _atom_site_label
 _atom_site_symmetry_multiplicity
 _atom_site_fract_x
 _atom_site_fract_y
 _atom_site_fract_z
 _atom_site_occupancy
  Na+  Na0  1  0.91130100  0.95578400  0.52417300  1
  V5+  V1  1  0.25753700  0.31578200  0.61804400  1
  V5+  V2  1  0.67358400  0.60497800  0.92777200  1
  Bi3+  Bi3  1  0.02355700  0.97014000  0.02415200  1
  Bi3+  Bi4  1  0.38873400  0.23495000  0.15674500  1
  Bi3+  Bi5  1  0.56478800  0.66175300  0.40515200  1
  O2-  O6  1  0.21761700  0.97117200  0.27677300  1
  O2-  O7  1  0.22464400  0.58056700  0.58204000  1
  O2-  O8  1  0.33207600  0.15273700  0.87492500  1
  O2-  O9  1  0.41194200  0.66772200  0.07520900  1
  O2-  O10  1  0.49839700  0.23771800  0.46219600  1
  O2-  O11  1  0.60936800  0.74752400  0.67208700  1
  O2-  O12  1  0.72306700  0.93614200  0.24600300  1
  O2-  O13  1  0.74657700  0.32485000  0.98482100  1
  O2-  O14  1  0.91530400  0.64537600  0.01380300  1
  O2-  O15  1  0.98490700  0.30120600  0.54920500  1
