# generated using pymatgen
data_NbAlO4
_symmetry_space_group_name_H-M   C2/m
_cell_length_a   12.21782303
_cell_length_b   3.80337907
_cell_length_c   13.19594975
_cell_angle_alpha   90.00000000
_cell_angle_beta   106.66022249
_cell_angle_gamma   90.00000000
_symmetry_Int_Tables_number   12
_chemical_formula_structural   NbAlO4
_chemical_formula_sum   'Nb8 Al8 O32'
_cell_volume   587.46158208
_cell_formula_units_Z   8
loop_
 _symmetry_equiv_pos_site_id
 _symmetry_equiv_pos_as_xyz
  1  'x, y, z'
  2  '-x, -y, -z'
  3  '-x, y, -z'
  4  'x, -y, z'
  5  'x+1/2, y+1/2, z'
  6  '-x+1/2, -y+1/2, -z'
  7  '-x+1/2, y+1/2, -z'
  8  'x+1/2, -y+1/2, z'
loop_
 _atom_type_symbol
 _atom_type_oxidation_number
  Nb5+  5.0
  Al3+  3.0
  O2-  -2.0
loop_
 _atom_site_type_symbol
 _atom_site_label
 _atom_site_symmetry_multiplicity
 _atom_site_fract_x
 _atom_site_fract_y
 _atom_site_fract_z
 _atom_site_occupancy
  Nb5+  Nb0  4  0.10593600  0.50000000  0.86593150  1
  Nb5+  Nb1  4  0.19637850  0.50000000  0.63432950  1
  Al3+  Al2  4  0.09543800  0.50000000  0.34365550  1
  Al3+  Al3  4  0.19621800  0.50000000  0.15369250  1
  O2-  O4  4  0.05805600  0.50000000  0.18826250  1
  O2-  O5  4  0.05972000  0.50000000  0.68297650  1
  O2-  O6  4  0.13159850  0.00000000  0.34779850  1
  O2-  O7  4  0.13178250  0.50000000  0.00929050  1
  O2-  O8  4  0.13583950  0.50000000  0.49161750  1
  O2-  O9  4  0.14809500  0.00000000  0.85382750  1
  O2-  O10  4  0.23126600  0.00000000  0.17058550  1
  O2-  O11  4  0.24109000  0.00000000  0.67780150  1
