# generated using pymatgen
data_Nd2(MoO4)3
_symmetry_space_group_name_H-M   C2/c
_cell_length_a   7.51328609
_cell_length_b   11.65108248
_cell_length_c   11.82363065
_cell_angle_alpha   90.00000000
_cell_angle_beta   108.28049282
_cell_angle_gamma   90.00000000
_symmetry_Int_Tables_number   15
_chemical_formula_structural   Nd2(MoO4)3
_chemical_formula_sum   'Nd8 Mo12 O48'
_cell_volume   982.78113644
_cell_formula_units_Z   4
loop_
 _symmetry_equiv_pos_site_id
 _symmetry_equiv_pos_as_xyz
  1  'x, y, z'
  2  '-x, -y, -z'
  3  '-x, y, -z+1/2'
  4  'x, -y, z+1/2'
  5  'x+1/2, y+1/2, z'
  6  '-x+1/2, -y+1/2, -z'
  7  '-x+1/2, y+1/2, -z+1/2'
  8  'x+1/2, -y+1/2, z+1/2'
loop_
 _atom_type_symbol
 _atom_type_oxidation_number
  Nd3+  3.0
  Mo6+  6.0
  O2-  -2.0
loop_
 _atom_site_type_symbol
 _atom_site_label
 _atom_site_symmetry_multiplicity
 _atom_site_fract_x
 _atom_site_fract_y
 _atom_site_fract_z
 _atom_site_occupancy
  Nd3+  Nd0  8  0.16838654  0.37619197  0.08979603  1
  Mo6+  Mo1  8  0.16076272  0.12440430  0.57336127  1
  Mo6+  Mo2  4  0.00000000  0.37347829  0.75000000  1
  O2-  O3  8  0.02508393  0.04721480  0.90131650  1
  O2-  O4  8  0.05905543  0.22190979  0.45837431  1
  O2-  O5  8  0.12279710  0.29488876  0.88364529  1
  O2-  O6  8  0.15101314  0.45707038  0.45623450  1
  O2-  O7  8  0.16489223  0.46161736  0.71782327  1
  O2-  O8  8  0.24046750  0.30276634  0.29099118  1
