# generated using pymatgen
data_Nd4Ti9O24
_symmetry_space_group_name_H-M   Fddd
_cell_length_a   14.13829253
_cell_length_b   14.62146201
_cell_length_c   35.61934195
_cell_angle_alpha   90.00000000
_cell_angle_beta   90.00000000
_cell_angle_gamma   90.00000000
_symmetry_Int_Tables_number   70
_chemical_formula_structural   Nd4Ti9O24
_chemical_formula_sum   'Nd64 Ti144 O384'
_cell_volume   7363.31966801
_cell_formula_units_Z   16
loop_
 _symmetry_equiv_pos_site_id
 _symmetry_equiv_pos_as_xyz
  1  'x, y, z'
  2  '-x, -y, z'
  3  'x, -y, -z'
  4  '-x, y, -z'
  5  '-x+1/4, -y+1/4, -z+1/4'
  6  'x+1/4, y+1/4, -z+1/4'
  7  '-x+1/4, y+1/4, z+1/4'
  8  'x+1/4, -y+1/4, z+1/4'
  9  'x+1/2, y, z+1/2'
  10  '-x+1/2, -y, z+1/2'
  11  'x+1/2, -y, -z+1/2'
  12  '-x+1/2, y, -z+1/2'
  13  '-x+3/4, -y+1/4, -z+3/4'
  14  'x+3/4, y+1/4, -z+3/4'
  15  '-x+3/4, y+1/4, z+3/4'
  16  'x+3/4, -y+1/4, z+3/4'
  17  'x+1/2, y+1/2, z'
  18  '-x+1/2, -y+1/2, z'
  19  'x+1/2, -y+1/2, -z'
  20  '-x+1/2, y+1/2, -z'
  21  '-x+3/4, -y+3/4, -z+1/4'
  22  'x+3/4, y+3/4, -z+1/4'
  23  '-x+3/4, y+3/4, z+1/4'
  24  'x+3/4, -y+3/4, z+1/4'
  25  'x, y+1/2, z+1/2'
  26  '-x, -y+1/2, z+1/2'
  27  'x, -y+1/2, -z+1/2'
  28  '-x, y+1/2, -z+1/2'
  29  '-x+1/4, -y+3/4, -z+3/4'
  30  'x+1/4, y+3/4, -z+3/4'
  31  '-x+1/4, y+3/4, z+3/4'
  32  'x+1/4, -y+3/4, z+3/4'
loop_
 _atom_type_symbol
 _atom_type_oxidation_number
  Nd3+  3.0
  Ti4+  4.0
  O2-  -2.0
loop_
 _atom_site_type_symbol
 _atom_site_label
 _atom_site_symmetry_multiplicity
 _atom_site_fract_x
 _atom_site_fract_y
 _atom_site_fract_z
 _atom_site_occupancy
  Nd3+  Nd0  32  0.09569253  0.10115428  0.74627460  1
  Nd3+  Nd1  16  0.00000000  0.00000000  0.12875958  1
  Nd3+  Nd2  16  0.00000000  0.00000000  0.35731440  1
  Ti4+  Ti3  32  0.00289497  0.28068438  0.08721015  1
  Ti4+  Ti4  32  0.00822447  0.24937058  0.67016398  1
  Ti4+  Ti5  32  0.10535622  0.12631888  0.95953607  1
  Ti4+  Ti6  32  0.11328078  0.13176254  0.04596892  1
  Ti4+  Ti7  16  0.00000000  0.00000000  0.45511024  1
  O2-  O8  32  0.00029752  0.12476581  0.07767477  1
  O2-  O9  32  0.00426322  0.09237370  0.58271374  1
  O2-  O10  32  0.01711445  0.12427673  0.31628784  1
  O2-  O11  32  0.02863337  0.12000468  0.17266862  1
  O2-  O12  32  0.06817707  0.41511020  0.25195006  1
  O2-  O13  32  0.08719833  0.23301312  0.37169729  1
  O2-  O14  32  0.08974461  0.24267138  0.62998942  1
  O2-  O15  32  0.09849333  0.23431987  0.44914323  1
  O2-  O16  32  0.10700051  0.24518183  0.79050665  1
  O2-  O17  32  0.10702333  0.24240950  0.55444191  1
  O2-  O18  32  0.12126623  0.24836618  0.20645958  1
  O2-  O19  16  0.00000000  0.08794993  0.50000000  1
  O2-  O20  16  0.00000000  0.12609964  0.00000000  1
