# generated using pymatgen
data_NdNbO4
_symmetry_space_group_name_H-M   C2/c
_cell_length_a   7.29385734
_cell_length_b   11.36384439
_cell_length_c   5.20644903
_cell_angle_alpha   90.00000000
_cell_angle_beta   131.44430414
_cell_angle_gamma   90.00000000
_symmetry_Int_Tables_number   15
_chemical_formula_structural   NdNbO4
_chemical_formula_sum   'Nd4 Nb4 O16'
_cell_volume   323.48447506
_cell_formula_units_Z   4
loop_
 _symmetry_equiv_pos_site_id
 _symmetry_equiv_pos_as_xyz
  1  'x, y, z'
  2  '-x, -y, -z'
  3  '-x, y, -z+1/2'
  4  'x, -y, z+1/2'
  5  'x+1/2, y+1/2, z'
  6  '-x+1/2, -y+1/2, -z'
  7  '-x+1/2, y+1/2, -z+1/2'
  8  'x+1/2, -y+1/2, z+1/2'
loop_
 _atom_type_symbol
 _atom_type_oxidation_number
  Nd3+  3.0
  Nb5+  5.0
  O2-  -2.0
loop_
 _atom_site_type_symbol
 _atom_site_label
 _atom_site_symmetry_multiplicity
 _atom_site_fract_x
 _atom_site_fract_y
 _atom_site_fract_z
 _atom_site_occupancy
  Nd3+  Nd0  4  0.00000000  0.37110485  0.75000000  1
  Nb5+  Nb1  4  0.00000000  0.10635805  0.25000000  1
  O2-  O2  8  0.15358827  0.20817326  0.15967843  1
  O2-  O3  8  0.24255828  0.03226126  0.69201777  1
