# generated using pymatgen
data_NdPO4
_symmetry_space_group_name_H-M   P2_1/c
_cell_length_a   6.40769441
_cell_length_b   6.96977536
_cell_length_c   8.14023728
_cell_angle_alpha   90.00000000
_cell_angle_beta   126.27367377
_cell_angle_gamma   90.00000000
_symmetry_Int_Tables_number   14
_chemical_formula_structural   NdPO4
_chemical_formula_sum   'Nd4 P4 O16'
_cell_volume   293.08969351
_cell_formula_units_Z   4
loop_
 _symmetry_equiv_pos_site_id
 _symmetry_equiv_pos_as_xyz
  1  'x, y, z'
  2  '-x, -y, -z'
  3  '-x, y+1/2, -z+1/2'
  4  'x, -y+1/2, z+1/2'
loop_
 _atom_type_symbol
 _atom_type_oxidation_number
  Nd3+  3.0
  P5+  5.0
  O2-  -2.0
loop_
 _atom_site_type_symbol
 _atom_site_label
 _atom_site_symmetry_multiplicity
 _atom_site_fract_x
 _atom_site_fract_y
 _atom_site_fract_z
 _atom_site_occupancy
  Nd3+  Nd0  4  0.18236523  0.15725598  0.28183924  1
  P5+  P1  4  0.30976101  0.66214956  0.19692431  1
  O2-  O2  4  0.11804408  0.66753267  0.61868933  1
  O2-  O3  4  0.19186573  0.50478074  0.25044103  1
  O2-  O4  4  0.33549026  0.60473078  0.02737120  1
  O2-  O5  4  0.41325876  0.21220578  0.12467539  1
