# generated using pymatgen
data_NdTaTiO6
_symmetry_space_group_name_H-M   Pna2_1
_cell_length_a   11.11147900
_cell_length_b   5.38735000
_cell_length_c   7.55131500
_cell_angle_alpha   90.00000000
_cell_angle_beta   90.00000000
_cell_angle_gamma   90.00000000
_symmetry_Int_Tables_number   33
_chemical_formula_structural   NdTaTiO6
_chemical_formula_sum   'Nd4 Ta4 Ti4 O24'
_cell_volume   452.03248703
_cell_formula_units_Z   4
loop_
 _symmetry_equiv_pos_site_id
 _symmetry_equiv_pos_as_xyz
  1  'x, y, z'
  2  '-x, -y, z+1/2'
  3  '-x+1/2, y+1/2, z+1/2'
  4  'x+1/2, -y+1/2, z'
loop_
 _atom_type_symbol
 _atom_type_oxidation_number
  Nd3+  3.0
  Ta5+  5.0
  Ti4+  4.0
  O2-  -2.0
loop_
 _atom_site_type_symbol
 _atom_site_label
 _atom_site_symmetry_multiplicity
 _atom_site_fract_x
 _atom_site_fract_y
 _atom_site_fract_z
 _atom_site_occupancy
  Nd3+  Nd0  4  0.04432400  0.54422800  0.24861600  1
  Ta5+  Ta1  4  0.14338300  0.03821100  0.50626500  1
  Ti4+  Ti2  4  0.14291100  0.03551800  0.99274500  1
  O2-  O3  4  0.02538300  0.76929900  0.96231100  1
  O2-  O4  4  0.02689800  0.76500300  0.53825800  1
  O2-  O5  4  0.12183500  0.15946900  0.75222500  1
  O2-  O6  4  0.14324900  0.95249300  0.24890700  1
  O2-  O7  4  0.21026400  0.37020400  0.05988900  1
  O2-  O8  4  0.21245300  0.37488000  0.44078300  1
