# generated using pymatgen
data_PrTaTiO6
_symmetry_space_group_name_H-M   Pna2_1
_cell_length_a   11.09694100
_cell_length_b   5.42712000
_cell_length_c   7.57792400
_cell_angle_alpha   90.00000000
_cell_angle_beta   90.00000000
_cell_angle_gamma   90.00000000
_symmetry_Int_Tables_number   33
_chemical_formula_structural   PrTaTiO6
_chemical_formula_sum   'Pr4 Ta4 Ti4 O24'
_cell_volume   456.37615682
_cell_formula_units_Z   4
loop_
 _symmetry_equiv_pos_site_id
 _symmetry_equiv_pos_as_xyz
  1  'x, y, z'
  2  '-x, -y, z+1/2'
  3  '-x+1/2, y+1/2, z+1/2'
  4  'x+1/2, -y+1/2, z'
loop_
 _atom_type_symbol
 _atom_type_oxidation_number
  Pr3+  3.0
  Ta5+  5.0
  Ti4+  4.0
  O2-  -2.0
loop_
 _atom_site_type_symbol
 _atom_site_label
 _atom_site_symmetry_multiplicity
 _atom_site_fract_x
 _atom_site_fract_y
 _atom_site_fract_z
 _atom_site_occupancy
  Pr3+  Pr0  4  0.04325200  0.54418700  0.24878500  1
  Ta5+  Ta1  4  0.14373700  0.03802000  0.50550300  1
  Ti4+  Ti2  4  0.14318100  0.03500600  0.99329100  1
  O2-  O3  4  0.02555200  0.77128400  0.96299000  1
  O2-  O4  4  0.02700100  0.76696400  0.53744500  1
  O2-  O5  4  0.12283500  0.15377000  0.75232500  1
  O2-  O6  4  0.14434800  0.95326600  0.24881300  1
  O2-  O7  4  0.20970300  0.36892800  0.05812100  1
  O2-  O8  4  0.21203500  0.37375800  0.44272700  1
