# generated using pymatgen
data_Sm2O3
_symmetry_space_group_name_H-M   C2/m
_cell_length_a   14.21860973
_cell_length_b   3.61816616
_cell_length_c   8.86012329
_cell_angle_alpha   90.00000000
_cell_angle_beta   99.87375853
_cell_angle_gamma   90.00000000
_symmetry_Int_Tables_number   12
_chemical_formula_structural   Sm2O3
_chemical_formula_sum   'Sm12 O18'
_cell_volume   449.06013740
_cell_formula_units_Z   6
loop_
 _symmetry_equiv_pos_site_id
 _symmetry_equiv_pos_as_xyz
  1  'x, y, z'
  2  '-x, -y, -z'
  3  '-x, y, -z'
  4  'x, -y, z'
  5  'x+1/2, y+1/2, z'
  6  '-x+1/2, -y+1/2, -z'
  7  '-x+1/2, y+1/2, -z'
  8  'x+1/2, -y+1/2, z'
loop_
 _atom_type_symbol
 _atom_type_oxidation_number
  Sm3+  3.0
  O2-  -2.0
loop_
 _atom_site_type_symbol
 _atom_site_label
 _atom_site_symmetry_multiplicity
 _atom_site_fract_x
 _atom_site_fract_y
 _atom_site_fract_z
 _atom_site_occupancy
  Sm3+  Sm0  4  0.03382743  0.00000000  0.81167555  1
  Sm3+  Sm1  4  0.13494363  0.50000000  0.48811307  1
  Sm3+  Sm2  4  0.19021372  0.50000000  0.13758457  1
  O2-  O3  4  0.02679983  0.50000000  0.65574565  1
  O2-  O4  4  0.12895182  0.00000000  0.28489279  1
  O2-  O5  4  0.17525503  0.00000000  0.97219037  1
  O2-  O6  4  0.20334128  0.00000000  0.62610076  1
  O2-  O7  2  0.00000000  0.50000000  0.00000000  1
