# generated using pymatgen
data_SmPO4
_symmetry_space_group_name_H-M   P2_1/c
_cell_length_a   6.35256873
_cell_length_b   6.89068807
_cell_length_c   8.04869237
_cell_angle_alpha   90.00000000
_cell_angle_beta   126.17739399
_cell_angle_gamma   90.00000000
_symmetry_Int_Tables_number   14
_chemical_formula_structural   SmPO4
_chemical_formula_sum   'Sm4 P4 O16'
_cell_volume   284.39033010
_cell_formula_units_Z   4
loop_
 _symmetry_equiv_pos_site_id
 _symmetry_equiv_pos_as_xyz
  1  'x, y, z'
  2  '-x, -y, -z'
  3  '-x, y+1/2, -z+1/2'
  4  'x, -y+1/2, z+1/2'
loop_
 _atom_type_symbol
 _atom_type_oxidation_number
  Sm3+  3.0
  P5+  5.0
  O2-  -2.0
loop_
 _atom_site_type_symbol
 _atom_site_label
 _atom_site_symmetry_multiplicity
 _atom_site_fract_x
 _atom_site_fract_y
 _atom_site_fract_z
 _atom_site_occupancy
  Sm3+  Sm0  4  0.18412794  0.15553151  0.28189821  1
  P5+  P1  4  0.31051696  0.66134327  0.19751307  1
  O2-  O2  4  0.11865719  0.66582175  0.61745850  1
  O2-  O3  4  0.18830925  0.50329328  0.24987064  1
  O2-  O4  4  0.33890437  0.60256184  0.02756884  1
  O2-  O5  4  0.41013425  0.21086166  0.12226499  1
