# generated using pymatgen
data_Sr2CoSi2O7
_symmetry_space_group_name_H-M   P-42_1m
_cell_length_a   8.10555600
_cell_length_b   8.10555600
_cell_length_c   5.22859600
_cell_angle_alpha   90.00000000
_cell_angle_beta   90.00000000
_cell_angle_gamma   90.00000000
_symmetry_Int_Tables_number   113
_chemical_formula_structural   Sr2CoSi2O7
_chemical_formula_sum   'Sr4 Co2 Si4 O14'
_cell_volume   343.51895626
_cell_formula_units_Z   2
loop_
 _symmetry_equiv_pos_site_id
 _symmetry_equiv_pos_as_xyz
  1  'x, y, z'
  2  'y, -x, -z'
  3  '-x, -y, z'
  4  '-y, x, -z'
  5  'x+1/2, -y+1/2, -z'
  6  'y+1/2, x+1/2, z'
  7  '-x+1/2, y+1/2, -z'
  8  '-y+1/2, -x+1/2, z'
loop_
 _atom_type_symbol
 _atom_type_oxidation_number
  Sr2+  2.0
  Co2+  2.0
  Si4+  4.0
  O2-  -2.0
loop_
 _atom_site_type_symbol
 _atom_site_label
 _atom_site_symmetry_multiplicity
 _atom_site_fract_x
 _atom_site_fract_y
 _atom_site_fract_z
 _atom_site_occupancy
  Sr2+  Sr0  4  0.16658275  0.33341725  0.49357400  1
  Co2+  Co1  2  0.00000000  0.00000000  0.00000000  1
  Si4+  Si2  4  0.13828525  0.63828525  0.94486800  1
  O2-  O3  8  0.07985350  0.80893600  0.79880500  1
  O2-  O4  4  0.13983275  0.63983275  0.25392200  1
  O2-  O5  2  0.00000000  0.50000000  0.83589900  1
