# generated using pymatgen
data_Sr2NdTaO6
_symmetry_space_group_name_H-M   P2_1/c
_cell_length_a   5.89695003
_cell_length_b   6.07715200
_cell_length_c   10.28250394
_cell_angle_alpha   90.00000000
_cell_angle_beta   124.82530733
_cell_angle_gamma   90.00000000
_symmetry_Int_Tables_number   14
_chemical_formula_structural   Sr2NdTaO6
_chemical_formula_sum   'Sr4 Nd2 Ta2 O12'
_cell_volume   302.49285773
_cell_formula_units_Z   2
loop_
 _symmetry_equiv_pos_site_id
 _symmetry_equiv_pos_as_xyz
  1  'x, y, z'
  2  '-x, -y, -z'
  3  '-x, y+1/2, -z+1/2'
  4  'x, -y+1/2, z+1/2'
loop_
 _atom_type_symbol
 _atom_type_oxidation_number
  Sr2+  2.0
  Nd3+  3.0
  Ta5+  5.0
  O2-  -2.0
loop_
 _atom_site_type_symbol
 _atom_site_label
 _atom_site_symmetry_multiplicity
 _atom_site_fract_x
 _atom_site_fract_y
 _atom_site_fract_z
 _atom_site_occupancy
  Sr2+  Sr0  4  0.24145600  0.04559600  0.75333700  1
  Nd3+  Nd1  2  0.50000000  0.00000000  0.50000000  1
  Ta5+  Ta2  2  0.00000000  0.00000000  0.00000000  1
  O2-  O3  4  0.12685100  0.22727800  0.44392200  1
  O2-  O4  4  0.23166200  0.68577900  0.45565300  1
  O2-  O5  4  0.32257100  0.03738500  0.22865700  1
