# generated using pymatgen
data_Sr2SmSbO6
_symmetry_space_group_name_H-M   P2_1/c
_cell_length_a   5.89046300
_cell_length_b   6.00564100
_cell_length_c   10.23237339
_cell_angle_alpha   90.00000000
_cell_angle_beta   124.83353392
_cell_angle_gamma   90.00000000
_symmetry_Int_Tables_number   14
_chemical_formula_structural   Sr2SmSbO6
_chemical_formula_sum   'Sr4 Sm2 Sb2 O12'
_cell_volume   297.11904238
_cell_formula_units_Z   2
loop_
 _symmetry_equiv_pos_site_id
 _symmetry_equiv_pos_as_xyz
  1  'x, y, z'
  2  '-x, -y, -z'
  3  '-x, y+1/2, -z+1/2'
  4  'x, -y+1/2, z+1/2'
loop_
 _atom_type_symbol
 _atom_type_oxidation_number
  Sr2+  2.0
  Sm3+  3.0
  Sb5+  5.0
  O2-  -2.0
loop_
 _atom_site_type_symbol
 _atom_site_label
 _atom_site_symmetry_multiplicity
 _atom_site_fract_x
 _atom_site_fract_y
 _atom_site_fract_z
 _atom_site_occupancy
  Sr2+  Sr0  4  0.23863600  0.04259300  0.24946800  1
  Sm3+  Sm1  2  0.50000000  0.00000000  0.00000000  1
  Sb5+  Sb2  2  0.00000000  0.00000000  0.50000000  1
  O2-  O3  4  0.13884800  0.22416700  0.95124100  1
  O2-  O4  4  0.22962600  0.69245500  0.95478700  1
  O2-  O5  4  0.32033700  0.02879000  0.73203300  1
