# generated using pymatgen
data_Sr2ZrTiO6
_symmetry_space_group_name_H-M   I4/m
_cell_length_a   5.71991668
_cell_length_b   5.71991668
_cell_length_c   8.17224900
_cell_angle_alpha   90.00000000
_cell_angle_beta   90.00000000
_cell_angle_gamma   90.00000000
_symmetry_Int_Tables_number   87
_chemical_formula_structural   Sr2ZrTiO6
_chemical_formula_sum   'Sr4 Zr2 Ti2 O12'
_cell_volume   267.37512211
_cell_formula_units_Z   2
loop_
 _symmetry_equiv_pos_site_id
 _symmetry_equiv_pos_as_xyz
  1  'x, y, z'
  2  '-x, -y, -z'
  3  '-y, x, z'
  4  'y, -x, -z'
  5  '-x, -y, z'
  6  'x, y, -z'
  7  'y, -x, z'
  8  '-y, x, -z'
  9  'x+1/2, y+1/2, z+1/2'
  10  '-x+1/2, -y+1/2, -z+1/2'
  11  '-y+1/2, x+1/2, z+1/2'
  12  'y+1/2, -x+1/2, -z+1/2'
  13  '-x+1/2, -y+1/2, z+1/2'
  14  'x+1/2, y+1/2, -z+1/2'
  15  'y+1/2, -x+1/2, z+1/2'
  16  '-y+1/2, x+1/2, -z+1/2'
loop_
 _atom_type_symbol
 _atom_type_oxidation_number
  Sr2+  2.0
  Zr4+  4.0
  Ti4+  4.0
  O2-  -2.0
loop_
 _atom_site_type_symbol
 _atom_site_label
 _atom_site_symmetry_multiplicity
 _atom_site_fract_x
 _atom_site_fract_y
 _atom_site_fract_z
 _atom_site_occupancy
  Sr2+  Sr0  4  0.00000000  0.50000000  0.25000000  1
  Zr4+  Zr1  2  0.00000000  0.00000000  0.50000000  1
  Ti4+  Ti2  2  0.00000000  0.00000000  0.00000000  1
  O2-  O3  8  0.20530683  0.72185731  0.00000000  1
  O2-  O4  4  0.00000000  0.00000000  0.24226166  1
