# generated using pymatgen
data_Sr3LaNb3O12
_symmetry_space_group_name_H-M   R3
_cell_length_a   5.73196363
_cell_length_b   5.73196363
_cell_length_c   27.68932935
_cell_angle_alpha   90.00000000
_cell_angle_beta   90.00000000
_cell_angle_gamma   120.00000000
_symmetry_Int_Tables_number   146
_chemical_formula_structural   Sr3LaNb3O12
_chemical_formula_sum   'Sr9 La3 Nb9 O36'
_cell_volume   787.86157672
_cell_formula_units_Z   3
loop_
 _symmetry_equiv_pos_site_id
 _symmetry_equiv_pos_as_xyz
  1  'x, y, z'
  2  '-y, x-y, z'
  3  '-x+y, -x, z'
  4  'x+2/3, y+1/3, z+1/3'
  5  '-y+2/3, x-y+1/3, z+1/3'
  6  '-x+y+2/3, -x+1/3, z+1/3'
  7  'x+1/3, y+2/3, z+2/3'
  8  '-y+1/3, x-y+2/3, z+2/3'
  9  '-x+y+1/3, -x+2/3, z+2/3'
loop_
 _atom_type_symbol
 _atom_type_oxidation_number
  Sr2+  2.0
  La3+  3.0
  Nb5+  5.0
  O2-  -2.0
loop_
 _atom_site_type_symbol
 _atom_site_label
 _atom_site_symmetry_multiplicity
 _atom_site_fract_x
 _atom_site_fract_y
 _atom_site_fract_z
 _atom_site_occupancy
  Sr2+  Sr0  3  0.00000000  0.00000000  0.14070200  1
  Sr2+  Sr1  3  0.00000000  0.00000000  0.71460200  1
  Sr2+  Sr2  3  0.00000000  0.00000000  0.85899600  1
  La3+  La3  3  0.00000000  0.00000000  0.28528500  1
  Nb5+  Nb4  3  0.00000000  0.00000000  0.00131900  1
  Nb5+  Nb5  3  0.00000000  0.00000000  0.42447500  1
  Nb5+  Nb6  3  0.00000000  0.00000000  0.57652600  1
  O2-  O7  9  0.00006867  0.43048833  0.29245933  1
  O2-  O8  9  0.00133533  0.43452367  0.12124367  1
  O2-  O9  9  0.00624000  0.56769700  0.88081700  1
  O2-  O10  9  0.11572000  0.77924600  0.03817800  1
