# generated using pymatgen
data_Sr3MgTa2O9
_symmetry_space_group_name_H-M   P-3m1
_cell_length_a   5.72025959
_cell_length_b   5.72025959
_cell_length_c   7.03265800
_cell_angle_alpha   90.00000000
_cell_angle_beta   90.00000000
_cell_angle_gamma   120.00000000
_symmetry_Int_Tables_number   164
_chemical_formula_structural   Sr3MgTa2O9
_chemical_formula_sum   'Sr3 Mg1 Ta2 O9'
_cell_volume   199.28820944
_cell_formula_units_Z   1
loop_
 _symmetry_equiv_pos_site_id
 _symmetry_equiv_pos_as_xyz
  1  'x, y, z'
  2  '-x, -y, -z'
  3  '-y, x-y, z'
  4  'y, -x+y, -z'
  5  '-x+y, -x, z'
  6  'x-y, x, -z'
  7  'y, x, -z'
  8  '-y, -x, z'
  9  'x-y, -y, -z'
  10  '-x+y, y, z'
  11  '-x, -x+y, -z'
  12  'x, x-y, z'
loop_
 _atom_type_symbol
 _atom_type_oxidation_number
  Sr2+  2.0
  Mg2+  2.0
  Ta5+  5.0
  O2-  -2.0
loop_
 _atom_site_type_symbol
 _atom_site_label
 _atom_site_symmetry_multiplicity
 _atom_site_fract_x
 _atom_site_fract_y
 _atom_site_fract_z
 _atom_site_occupancy
  Sr2+  Sr0  2  0.33333333  0.66666667  0.67371600  1
  Sr2+  Sr1  1  0.00000000  0.00000000  0.00000000  1
  Mg2+  Mg2  1  0.00000000  0.00000000  0.50000000  1
  Ta5+  Ta3  2  0.33333333  0.66666667  0.18106200  1
  O2-  O4  6  0.16850450  0.83149550  0.32705400  1
  O2-  O5  3  0.00000000  0.50000000  0.00000000  1
