# generated using pymatgen
data_Sr5Ta4O15
_symmetry_space_group_name_H-M   P-3c1
_cell_length_a   5.67053479
_cell_length_b   5.67053479
_cell_length_c   23.06224154
_cell_angle_alpha   90.00000000
_cell_angle_beta   90.00000000
_cell_angle_gamma   120.00000000
_symmetry_Int_Tables_number   165
_chemical_formula_structural   Sr5Ta4O15
_chemical_formula_sum   'Sr10 Ta8 O30'
_cell_volume   642.21461798
_cell_formula_units_Z   2
loop_
 _symmetry_equiv_pos_site_id
 _symmetry_equiv_pos_as_xyz
  1  'x, y, z'
  2  '-x, -y, -z'
  3  '-y, x-y, z'
  4  'y, -x+y, -z'
  5  '-x+y, -x, z'
  6  'x-y, x, -z'
  7  'y, x, -z+1/2'
  8  '-y, -x, z+1/2'
  9  'x-y, -y, -z+1/2'
  10  '-x+y, y, z+1/2'
  11  '-x, -x+y, -z+1/2'
  12  'x, x-y, z+1/2'
loop_
 _atom_type_symbol
 _atom_type_oxidation_number
  Sr2+  2.0
  Ta5+  5.0
  O2-  -2.0
loop_
 _atom_site_type_symbol
 _atom_site_label
 _atom_site_symmetry_multiplicity
 _atom_site_fract_x
 _atom_site_fract_y
 _atom_site_fract_z
 _atom_site_occupancy
  Sr2+  Sr0  4  0.33333333  0.66666667  0.63971851  1
  Sr2+  Sr1  4  0.33333333  0.66666667  0.97180643  1
  Sr2+  Sr2  2  0.00000000  0.00000000  0.25000000  1
  Ta5+  Ta3  4  0.00000000  0.00000000  0.09208957  1
  Ta5+  Ta4  4  0.33333333  0.66666667  0.80212165  1
  O2-  O5  12  0.10115479  0.33202593  0.55597540  1
  O2-  O6  12  0.12085395  0.33051594  0.34553567  1
  O2-  O7  6  0.00000000  0.45932745  0.75000000  1
