# generated using pymatgen
data_SrCaTi2O6
_symmetry_space_group_name_H-M   Pmc2_1
_cell_length_a   7.81389455
_cell_length_b   5.52465262
_cell_length_c   5.52903243
_cell_angle_alpha   90.00000000
_cell_angle_beta   90.00000000
_cell_angle_gamma   90.00000000
_symmetry_Int_Tables_number   26
_chemical_formula_structural   SrCaTi2O6
_chemical_formula_sum   'Sr2 Ca2 Ti4 O12'
_cell_volume   238.68309400
_cell_formula_units_Z   2
loop_
 _symmetry_equiv_pos_site_id
 _symmetry_equiv_pos_as_xyz
  1  'x, y, z'
  2  '-x, -y, z+1/2'
  3  '-x, y, z'
  4  'x, -y, z+1/2'
loop_
 _atom_type_symbol
 _atom_type_oxidation_number
  Sr2+  2.0
  Ca2+  2.0
  Ti4+  4.0
  O2-  -2.0
loop_
 _atom_site_type_symbol
 _atom_site_label
 _atom_site_symmetry_multiplicity
 _atom_site_fract_x
 _atom_site_fract_y
 _atom_site_fract_z
 _atom_site_occupancy
  Sr2+  Sr0  2  0.50000000  0.25435925  0.98527838  1
  Ca2+  Ca1  2  0.00000000  0.24840765  0.01740173  1
  Ti4+  Ti2  4  0.24513813  0.25136952  0.49869163  1
  O2-  O3  4  0.21419761  0.02515031  0.77639240  1
  O2-  O4  4  0.27008194  0.47654562  0.22690548  1
  O2-  O5  2  0.00000000  0.31398678  0.49010080  1
  O2-  O6  2  0.50000000  0.20684166  0.50324007  1
