# generated using pymatgen
data_SrMgV2O7
_symmetry_space_group_name_H-M   P2_1/c
_cell_length_a   6.92407800
_cell_length_b   15.04380000
_cell_length_c   11.49948665
_cell_angle_alpha   90.00000000
_cell_angle_beta   99.12538426
_cell_angle_gamma   90.00000000
_symmetry_Int_Tables_number   14
_chemical_formula_structural   SrMgV2O7
_chemical_formula_sum   'Sr8 Mg8 V16 O56'
_cell_volume   1182.67737513
_cell_formula_units_Z   8
loop_
 _symmetry_equiv_pos_site_id
 _symmetry_equiv_pos_as_xyz
  1  'x, y, z'
  2  '-x, -y, -z'
  3  '-x, y+1/2, -z+1/2'
  4  'x, -y+1/2, z+1/2'
loop_
 _atom_type_symbol
 _atom_type_oxidation_number
  Sr2+  2.0
  Mg2+  2.0
  V5+  5.0
  O2-  -2.0
loop_
 _atom_site_type_symbol
 _atom_site_label
 _atom_site_symmetry_multiplicity
 _atom_site_fract_x
 _atom_site_fract_y
 _atom_site_fract_z
 _atom_site_occupancy
  Sr2+  Sr0  4  0.08261900  0.50481700  0.24537300  1
  Sr2+  Sr1  4  0.34157500  0.62426700  0.97918900  1
  Mg2+  Mg2  4  0.00404700  0.74601200  0.25010100  1
  Mg2+  Mg3  4  0.36135200  0.17553000  0.92292400  1
  V5+  V4  4  0.12650100  0.63709000  0.52097400  1
  V5+  V5  4  0.15566900  0.13586800  0.51824400  1
  V5+  V6  4  0.40890100  0.01240100  0.17715700  1
  V5+  V7  4  0.48617700  0.19999800  0.20137100  1
  O2-  O8  4  0.00008500  0.14308500  0.38374500  1
  O2-  O9  4  0.00956700  0.14637900  0.62880700  1
  O2-  O10  4  0.03112800  0.64242700  0.37295200  1
  O2-  O11  4  0.04960400  0.15784700  0.88569700  1
  O2-  O12  4  0.22093900  0.52783500  0.55038600  1
  O2-  O13  4  0.26126400  0.03289900  0.53736400  1
  O2-  O14  4  0.28358900  0.51765300  0.78621200  1
  O2-  O15  4  0.31112000  0.73625700  0.79808300  1
  O2-  O16  4  0.31186800  0.24542400  0.27622000  1
  O2-  O17  4  0.31976400  0.70837200  0.54968600  1
  O2-  O18  4  0.34792500  0.21450800  0.53373000  1
  O2-  O19  4  0.39874000  0.11908500  0.08495300  1
  O2-  O20  4  0.40577400  0.06010500  0.83271100  1
  O2-  O21  4  0.42817300  0.60191400  0.21565100  1
