# generated using pymatgen
data_SrNb2O6
_symmetry_space_group_name_H-M   P2_1/c
_cell_length_a   7.73780725
_cell_length_b   5.63239079
_cell_length_c   11.16099409
_cell_angle_alpha   90.00000000
_cell_angle_beta   90.28298743
_cell_angle_gamma   90.00000000
_symmetry_Int_Tables_number   14
_chemical_formula_structural   SrNb2O6
_chemical_formula_sum   'Sr4 Nb8 O24'
_cell_volume   486.41646602
_cell_formula_units_Z   4
loop_
 _symmetry_equiv_pos_site_id
 _symmetry_equiv_pos_as_xyz
  1  'x, y, z'
  2  '-x, -y, -z'
  3  '-x, y+1/2, -z+1/2'
  4  'x, -y+1/2, z+1/2'
loop_
 _atom_type_symbol
 _atom_type_oxidation_number
  Sr2+  2.0
  Nb5+  5.0
  O2-  -2.0
loop_
 _atom_site_type_symbol
 _atom_site_label
 _atom_site_symmetry_multiplicity
 _atom_site_fract_x
 _atom_site_fract_y
 _atom_site_fract_z
 _atom_site_occupancy
  Sr2+  Sr0  4  0.24990551  0.03536204  0.53942318  1
  Nb5+  Nb1  4  0.00954404  0.52545583  0.64410882  1
  Nb5+  Nb2  4  0.47782395  0.03191256  0.85698472  1
  O2-  O3  4  0.03505577  0.72037049  0.47394107  1
  O2-  O4  4  0.05049944  0.63557936  0.21154428  1
  O2-  O5  4  0.24789967  0.14680612  0.87200980  1
  O2-  O6  4  0.25170647  0.03379515  0.14587063  1
  O2-  O7  4  0.44665660  0.64072014  0.21234655  1
  O2-  O8  4  0.46528951  0.72116534  0.47407942  1
