data_22-Sr(Sm0.5Nb0.5)O3
_audit_creation_date              2024-01-08
_audit_creation_method            'Materials Studio'
_symmetry_space_group_name_H-M    'P21/N'
_symmetry_Int_Tables_number       14
_symmetry_cell_setting            monoclinic
loop_
_symmetry_equiv_pos_as_xyz
  x,y,z
  -x+1/2,y+1/2,-z+1/2
  -x,-y,-z
  x+1/2,-y+1/2,z+1/2
_cell_length_a                    5.7910
_cell_length_b                    5.8221
_cell_length_c                    8.2036
_cell_angle_alpha                 90.0000
_cell_angle_beta                  90.1260
_cell_angle_gamma                 90.0000
loop_
_atom_site_label
_atom_site_type_symbol
_atom_site_fract_x
_atom_site_fract_y
_atom_site_fract_z
_atom_site_U_iso_or_equiv
_atom_site_adp_type
_atom_site_occupancy
Sr1    Sr    0.00500   0.02710   0.25110   0.00836  Uiso   1.00
O1     O     0.19900   0.77300   0.03700   0.00840  Uiso   1.00
O2     O     0.27000   0.30100   0.03500   0.00840  Uiso   1.00
O3     O     0.43000   0.01500  -0.26200   0.00840  Uiso   1.00
Sm2    Sm    0.50000   0.00000   0.00000   0.00405  Uiso   1.00
Nb3    Nb    0.00000   0.50000   0.00000   0.00329  Uiso   1.00
