# generated using pymatgen
data_SrV2ZnO7
_symmetry_space_group_name_H-M   P2_1/c
_cell_length_a   7.59732800
_cell_length_b   6.77283300
_cell_length_c   13.62432438
_cell_angle_alpha   90.00000000
_cell_angle_beta   117.62545990
_cell_angle_gamma   90.00000000
_symmetry_Int_Tables_number   14
_chemical_formula_structural   SrV2ZnO7
_chemical_formula_sum   'Sr4 V8 Zn4 O28'
_cell_volume   621.12466448
_cell_formula_units_Z   4
loop_
 _symmetry_equiv_pos_site_id
 _symmetry_equiv_pos_as_xyz
  1  'x, y, z'
  2  '-x, -y, -z'
  3  '-x, y+1/2, -z+1/2'
  4  'x, -y+1/2, z+1/2'
loop_
 _atom_type_symbol
 _atom_type_oxidation_number
  Sr2+  2.0
  V5+  5.0
  Zn2+  2.0
  O2-  -2.0
loop_
 _atom_site_type_symbol
 _atom_site_label
 _atom_site_symmetry_multiplicity
 _atom_site_fract_x
 _atom_site_fract_y
 _atom_site_fract_z
 _atom_site_occupancy
  Sr2+  Sr0  4  0.23115200  0.14940700  0.47633800  1
  V5+  V1  4  0.21741500  0.65622900  0.46154000  1
  V5+  V2  4  0.30603500  0.58872200  0.72040200  1
  Zn2+  Zn3  4  0.21035600  0.10778400  0.73290200  1
  O2-  O4  4  0.01772200  0.67605300  0.91999500  1
  O2-  O5  4  0.16987200  0.69757600  0.19419000  1
  O2-  O6  4  0.20245300  0.02850600  0.87102600  1
  O2-  O7  4  0.22839400  0.08911800  0.28194900  1
  O2-  O8  4  0.25249000  0.50674900  0.58020600  1
  O2-  O9  4  0.41512100  0.69603800  0.99441900  1
  O2-  O10  4  0.44112600  0.13103600  0.69941700  1
