#### CIF created by Crystallographica 2 ####

data_DistrontiumYttriumNiobiumOxide

_audit_creation_method                    'Crystallographica 2' 
_cell_angle_alpha                         90 
_cell_angle_beta                          90.166 
_cell_angle_gamma                         90 
_cell_formula_units_Z                     2 
_cell_length_a                            5.8117 
_cell_length_b                            5.8644 
_cell_length_c                            8.2454 
_cell_volume                              281.02 
_cgraph_comments                         'Structures of the ordered double perovskites Sr2 Y Ta O6 
     and Sr2 Y Nb O6
'
_cgraph_title                            'Distrontium Yttrium Niobium Oxide'
_chemical_formula_sum                    'Sr2 Y Nb O6'
_symmetry_space_group_name_H-M           'P 21/c'
_symmetry_space_group_name_Hall          '-P 2yn'

loop_
        _symmetry_equiv_pos_as_xyz
        'x, y, z'
        '-x, -y, -z'
        '-x+1/2, y+1/2, -z+1/2'
        'x+1/2, -y+1/2, z+1/2'

loop_
        _atom_site_label
        _atom_site_type_symbol
        _atom_site_fract_x
        _atom_site_fract_y
        _atom_site_fract_z
        _atom_site_U_iso_or_equiv
        _atom_site_thermal_displace_type
        _atom_site_occupancy
        Sr1 Sr2+ -0.006 0.468 0.2512 0.0166 Uiso 1
        Nb1 Nb5+ 0 0 0.5 0.0121 Uiso 1
        Y1 Y3+ 0 0 0 0.0108 Uiso 1
        O1 O2- 0.0765 0.0206 0.2646 0.0165 Uiso 1
        O2 O2- 0.2263 0.3032 -0.038 0.0151 Uiso 1
        O3 O2- 0.3048 0.7743 -0.042 0.0173 Uiso 1

_eof

#### End of Crystallographic Information File ####
