# generated using pymatgen
data_SrZnP2O7
_symmetry_space_group_name_H-M   P2_1/c
_cell_length_a   5.38833500
_cell_length_b   8.31438800
_cell_length_c   14.00014388
_cell_angle_alpha   90.00000000
_cell_angle_beta   112.41193395
_cell_angle_gamma   90.00000000
_symmetry_Int_Tables_number   14
_chemical_formula_structural   SrZnP2O7
_chemical_formula_sum   'Sr4 Zn4 P8 O28'
_cell_volume   579.84059845
_cell_formula_units_Z   4
loop_
 _symmetry_equiv_pos_site_id
 _symmetry_equiv_pos_as_xyz
  1  'x, y, z'
  2  '-x, -y, -z'
  3  '-x, y+1/2, -z+1/2'
  4  'x, -y+1/2, z+1/2'
loop_
 _atom_type_symbol
 _atom_type_oxidation_number
  Sr2+  2.0
  Zn2+  2.0
  P5+  5.0
  O2-  -2.0
loop_
 _atom_site_type_symbol
 _atom_site_label
 _atom_site_symmetry_multiplicity
 _atom_site_fract_x
 _atom_site_fract_y
 _atom_site_fract_z
 _atom_site_occupancy
  Sr2+  Sr0  4  0.00907100  0.66124000  0.72090800  1
  Zn2+  Zn1  4  0.27745100  0.15281800  0.10471000  1
  P5+  P2  4  0.33519400  0.69839400  0.51994600  1
  P5+  P3  4  0.41703200  0.53562900  0.16556900  1
  O2-  O4  4  0.11327200  0.68554300  0.41143100  1
  O2-  O5  4  0.19188900  0.55888600  0.20492400  1
  O2-  O6  4  0.27247300  0.59593200  0.60015000  1
  O2-  O7  4  0.31903000  0.61507600  0.05132800  1
  O2-  O8  4  0.31967200  0.11963300  0.26587700  1
  O2-  O9  4  0.37835300  0.16761600  0.97453000  1
  O2-  O10  4  0.48062200  0.14036500  0.65223200  1
