# generated using pymatgen
data_TbTaTiO6
_symmetry_space_group_name_H-M   Pna2_1
_cell_length_a   11.09021600
_cell_length_b   5.25056500
_cell_length_c   7.45333000
_cell_angle_alpha   90.00000000
_cell_angle_beta   90.00000000
_cell_angle_gamma   90.00000000
_symmetry_Int_Tables_number   33
_chemical_formula_structural   TbTaTiO6
_chemical_formula_sum   'Tb4 Ta4 Ti4 O24'
_cell_volume   434.00666036
_cell_formula_units_Z   4
loop_
 _symmetry_equiv_pos_site_id
 _symmetry_equiv_pos_as_xyz
  1  'x, y, z'
  2  '-x, -y, z+1/2'
  3  '-x+1/2, y+1/2, z+1/2'
  4  'x+1/2, -y+1/2, z'
loop_
 _atom_type_symbol
 _atom_type_oxidation_number
  Tb3+  3.0
  Ta5+  5.0
  Ti4+  4.0
  O2-  -2.0
loop_
 _atom_site_type_symbol
 _atom_site_label
 _atom_site_symmetry_multiplicity
 _atom_site_fract_x
 _atom_site_fract_y
 _atom_site_fract_z
 _atom_site_occupancy
  Tb3+  Tb0  4  0.04447700  0.54507600  0.24849500  1
  Ta5+  Ta1  4  0.14364400  0.03951200  0.50709700  1
  Ti4+  Ti2  4  0.14228700  0.03708600  0.99192300  1
  O2-  O3  4  0.02556500  0.76342400  0.95829600  1
  O2-  O4  4  0.02747600  0.75944600  0.54224700  1
  O2-  O5  4  0.11776800  0.17491600  0.75234600  1
  O2-  O6  4  0.14402800  0.93940400  0.24862200  1
  O2-  O7  4  0.20766600  0.37903900  0.06651800  1
  O2-  O8  4  0.21039100  0.38373700  0.43445700  1
