# generated using pymatgen
data_TiNb2ZnO8
_symmetry_space_group_name_H-M   P2
_cell_length_a   4.74141800
_cell_length_b   5.80209300
_cell_length_c   5.03271067
_cell_angle_alpha   90.00000000
_cell_angle_beta   91.48254130
_cell_angle_gamma   90.00000000
_symmetry_Int_Tables_number   3
_chemical_formula_structural   TiNb2ZnO8
_chemical_formula_sum   'Ti1 Nb2 Zn1 O8'
_cell_volume   138.40427080
_cell_formula_units_Z   1
loop_
 _symmetry_equiv_pos_site_id
 _symmetry_equiv_pos_as_xyz
  1  'x, y, z'
  2  '-x, y, -z'
loop_
 _atom_type_symbol
 _atom_type_oxidation_number
  Ti4+  4.0
  Nb5+  5.0
  Zn2+  2.0
  O2-  -2.0
loop_
 _atom_site_type_symbol
 _atom_site_label
 _atom_site_symmetry_multiplicity
 _atom_site_fract_x
 _atom_site_fract_y
 _atom_site_fract_z
 _atom_site_occupancy
  Ti4+  Ti0  1  0.50000000  0.83202500  0.50000000  1
  Nb5+  Nb1  1  0.00000000  0.68349500  0.00000000  1
  Nb5+  Nb2  1  0.50000000  0.18820600  0.00000000  1
  Zn2+  Zn3  1  0.00000000  0.30895300  0.50000000  1
  O2-  O4  2  0.22556100  0.38789900  0.84260000  1
  O2-  O5  2  0.24125600  0.62801500  0.32305700  1
  O2-  O6  2  0.26470100  0.87777300  0.82068800  1
  O2-  O7  2  0.29103200  0.09997400  0.31669200  1
