# generated using pymatgen
data_TiNbFeO6
_symmetry_space_group_name_H-M   P4_2nm
_cell_length_a   4.72178550
_cell_length_b   4.72178550
_cell_length_c   9.10803400
_cell_angle_alpha   90.00000000
_cell_angle_beta   90.00000000
_cell_angle_gamma   90.00000000
_symmetry_Int_Tables_number   102
_chemical_formula_structural   TiNbFeO6
_chemical_formula_sum   'Ti2 Nb2 Fe2 O12'
_cell_volume   203.06597071
_cell_formula_units_Z   2
loop_
 _symmetry_equiv_pos_site_id
 _symmetry_equiv_pos_as_xyz
  1  'x, y, z'
  2  '-y+1/2, x+1/2, z+1/2'
  3  '-x, -y, z'
  4  'y+1/2, -x+1/2, z+1/2'
  5  '-x+1/2, y+1/2, z+1/2'
  6  'y, x, z'
  7  'x+1/2, -y+1/2, z+1/2'
  8  '-y, -x, z'
loop_
 _atom_type_symbol
 _atom_type_oxidation_number
  Ti4+  4.0
  Nb5+  5.0
  Fe3+  3.0
  O2-  -2.0
loop_
 _atom_site_type_symbol
 _atom_site_label
 _atom_site_symmetry_multiplicity
 _atom_site_fract_x
 _atom_site_fract_y
 _atom_site_fract_z
 _atom_site_occupancy
  Ti4+  Ti0  2  0.00000000  0.00000000  0.00026100  1
  Nb5+  Nb1  2  0.00000000  0.00000000  0.66576100  1
  Fe3+  Fe2  2  0.00000000  0.00000000  0.33175500  1
  O2-  O3  4  0.19305225  0.80694775  0.83590000  1
  O2-  O4  4  0.19536975  0.80463025  0.16227000  1
  O2-  O5  4  0.20067550  0.79932450  0.50295200  1
