# generated using pymatgen
data_BaDy2CuO5
_symmetry_space_group_name_H-M   Pnma
_cell_length_a   12.26568800
_cell_length_b   5.70539300
_cell_length_c   7.23371500
_cell_angle_alpha   90.00000000
_cell_angle_beta   90.00000000
_cell_angle_gamma   90.00000000
_symmetry_Int_Tables_number   62
_chemical_formula_structural   BaDy2CuO5
_chemical_formula_sum   'Ba4 Dy8 Cu4 O20'
_cell_volume   506.21950221
_cell_formula_units_Z   4
loop_
 _symmetry_equiv_pos_site_id
 _symmetry_equiv_pos_as_xyz
  1  'x, y, z'
  2  '-x, -y, -z'
  3  '-x+1/2, -y, z+1/2'
  4  'x+1/2, y, -z+1/2'
  5  'x+1/2, -y+1/2, -z+1/2'
  6  '-x+1/2, y+1/2, z+1/2'
  7  '-x, y+1/2, -z'
  8  'x, -y+1/2, z'
loop_
 _atom_type_symbol
 _atom_type_oxidation_number
  Ba2+  2.0
  Dy3+  3.0
  Cu2+  2.0
  O2-  -2.0
loop_
 _atom_site_type_symbol
 _atom_site_label
 _atom_site_symmetry_multiplicity
 _atom_site_fract_x
 _atom_site_fract_y
 _atom_site_fract_z
 _atom_site_occupancy
  Ba2+  Ba0  4  0.09607200  0.75000000  0.06654100  1
  Dy3+  Dy1  4  0.07369400  0.25000000  0.39575100  1
  Dy3+  Dy2  4  0.21320100  0.75000000  0.61121000  1
  Cu2+  Cu3  4  0.16066200  0.25000000  0.78026900  1
  O2-  O4  8  0.06834500  0.00540900  0.66052000  1
  O2-  O5  8  0.22802300  0.50372200  0.35337500  1
  O2-  O6  4  0.09941600  0.25000000  0.08301100  1
